54			
			
Fe	-0.313650	-0.523350	0.472360
C	0.859750	-0.284590	1.779800
I	-0.526430	2.180360	0.340580
C	-0.547720	-0.490210	-3.543390
C	-1.632610	-0.368190	1.655620
H	2.665950	-1.680410	0.825290
C	-1.866230	-0.566390	-3.970540
O	-2.429620	-0.204950	2.476050
O	1.599080	-0.103490	2.649460
C	-0.307890	-0.533520	-2.168240
N	-1.317610	-0.621090	-1.264510
C	-2.607700	-0.694690	-1.670070
C	-2.898340	-0.674990	-3.032790
S	1.211510	-0.526750	-1.324770
C	-3.678260	-0.788960	-0.628870
H	-3.483990	-1.626280	0.048570
H	-4.654530	-0.938630	-1.093470
H	-3.712210	0.129080	-0.031710
H	-3.932200	-0.747330	-3.352230
H	-2.096630	-0.549640	-5.031840
H	0.281860	-0.415700	-4.238050
P	-0.120380	-2.780840	0.606880
H	1.195660	-4.118520	2.891760
H	0.590850	-3.236380	-2.123380
C	-1.003010	-3.669660	-0.730900
C	-2.257740	-4.272790	-0.574750
C	-2.892930	-4.866530	-1.666600
C	-2.286540	-4.861960	-2.922720
C	-1.029230	-4.274790	-3.082140
C	-0.389200	-3.686060	-1.995190
H	-2.742520	-4.306550	0.393320
H	-3.862920	-5.335510	-1.528430
H	-2.786370	-5.320000	-3.771540
H	-0.544210	-4.273740	-4.053970
C	-0.740960	-3.440150	2.203530
C	-2.094300	-3.306810	2.556880
C	-2.560070	-3.774930	3.783540
C	-1.675250	-4.361000	4.691300
C	-0.323530	-4.472540	4.363750
C	0.142180	-4.019420	3.128680
H	-2.796770	-2.826920	1.883980
H	-3.612590	-3.672590	4.030690
H	-2.036700	-4.720550	5.650370
H	0.375640	-4.915150	5.067430
C	1.559530	-3.506380	0.497520
C	1.667220	-4.892450	0.291800
C	2.918210	-5.505620	0.270460
C	4.075240	-4.744600	0.455910
C	3.975140	-3.367860	0.660520
C	2.723130	-2.752110	0.679450
H	0.773560	-5.493250	0.150850
H	2.988060	-6.577590	0.109730
H	5.050420	-5.223130	0.437720
H	4.869530	-2.768090	0.800810
