59			
			
Fe	0.174450	0.207850	0.410480
C	1.700540	1.002090	0.040290
H	-4.454810	1.317360	0.540450
S	-2.059950	-0.583210	0.510440
H	2.973950	-0.037220	2.164450
C	1.018860	-1.338220	0.468260
C	-0.121600	0.113800	-1.590510
O	2.722930	1.452990	-0.274660
O	1.610200	-2.335700	0.514220
H	0.246810	4.823380	0.210530
H	-4.355520	3.820310	0.361390
H	0.968860	3.400500	0.995600
H	-0.513110	-2.009430	-1.692210
N	-1.104290	1.758140	0.382090
C	-2.200600	3.859630	0.255100
C	-3.444770	3.228480	0.358580
H	0.808480	3.447780	-0.766000
H	-0.386440	-1.199000	-3.293820
H	1.069140	-1.506160	-2.302620
C	-1.029580	3.104810	0.270110
C	-3.511270	1.846490	0.460760
C	0.004690	-1.241400	-2.272080
O	-0.389910	1.101430	-2.254310
C	0.325280	3.735140	0.173920
C	-2.308070	1.135840	0.454250
H	-2.131590	4.939180	0.175530
P	0.202000	0.327210	2.776930
H	-2.306880	-0.548030	4.036340
H	1.176730	-0.523410	5.434140
C	0.158600	-1.276680	3.679820
C	-0.446960	-2.402180	3.105720
C	-0.514920	-3.607600	3.805680
C	0.025490	-3.703320	5.088870
C	0.632340	-2.586710	5.669710
C	0.699180	-1.381580	4.971330
H	-0.878500	-2.333790	2.113380
H	-0.988540	-4.470210	3.345230
H	-0.022870	-4.642280	5.633410
H	1.056690	-2.652790	6.667760
C	1.704160	1.105990	3.488230
C	1.687300	2.024060	4.547990
C	2.883150	2.531770	5.059650
C	4.107330	2.117110	4.533310
C	4.133940	1.186000	3.491820
C	2.941060	0.689440	2.971420
H	0.745840	2.338930	4.985670
H	2.854180	3.247590	5.876420
H	5.036030	2.513530	4.934020
H	5.081800	0.849730	3.081300
C	-1.215200	1.235180	3.489900
C	-1.267370	2.636710	3.425430
C	-2.393890	3.324500	3.869740
C	-3.492170	2.621320	4.369230
C	-3.454190	1.227340	4.427130
C	-2.323680	0.536120	3.990480
H	-0.427040	3.196030	3.026000
H	-2.417650	4.408710	3.811770
H	-4.374630	3.157500	4.707210
H	-4.306390	0.672950	4.810680
