C5H10O3S
APtclcactv10031708493D 0   0.00000     0.00000
 
 19 18  0  0  0  0  0  0  0  0999 V2000
    1.4524    0.3802   -0.1246 C   0  0  0  0  0  0  0  0  0  0  0  0
    0.4140   -0.5686   -0.6655 C   0  0  0  0  0  0  0  0  0  0  0  0
   -0.8897   -0.3979    0.1169 C   0  0  0  0  0  0  0  0  0  0  0  0
   -1.4804    1.3083   -0.0573 S   0  0  0  0  0  0  0  0  0  0  0  0
   -1.6541    1.4343   -1.3851 H   0  0  0  0  0  0  0  0  0  0  0  0
   -1.9439   -1.3612   -0.4323 C   0  0  0  0  0  0  0  0  0  0  0  0
   -0.6409   -0.7031    1.5954 C   0  0  0  0  0  0  0  0  0  0  0  0
    0.2368   -0.3512   -1.7188 H   0  0  0  0  0  0  0  0  0  0  0  0
    0.8794   -1.9127   -0.5283 O   0  0  0  0  0  0  0  0  0  0  0  0
    1.0582   -2.1758    0.3849 H   0  0  0  0  0  0  0  0  0  0  0  0
    1.2755    1.7057   -0.2402 O   0  0  0  0  0  0  0  0  0  0  0  0
    1.9687    2.2744    0.1219 H   0  0  0  0  0  0  0  0  0  0  0  0
    2.4418   -0.0522    0.4177 O   0  0  0  0  0  0  0  0  0  0  0  0
   -1.5889   -2.3865   -0.3276 H   0  0  0  0  0  0  0  0  0  0  0  0
   -2.8727   -1.2396    0.1251 H   0  0  0  0  0  0  0  0  0  0  0  0
   -2.1211   -1.1439   -1.4856 H   0  0  0  0  0  0  0  0  0  0  0  0
    0.1102   -0.0168    1.9866 H   0  0  0  0  0  0  0  0  0  0  0  0
   -1.5697   -0.5815    2.1527 H   0  0  0  0  0  0  0  0  0  0  0  0
   -0.2859   -1.7283    1.7000 H   0  0  0  0  0  0  0  0  0  0  0  0
  1  2  1  0  0  0  0
  2  3  1  0  0  0  0
  3  4  1  0  0  0  0
  4  5  1  0  0  0  0
  3  6  1  0  0  0  0
  3  7  1  0  0  0  0
  2  8  1  0  0  0  0
  2  9  1  0  0  0  0
  9 10  1  0  0  0  0
  1 11  1  0  0  0  0
 11 12  1  0  0  0  0
  1 13  2  0  0  0  0
  6 14  1  0  0  0  0
  6 15  1  0  0  0  0
  6 16  1  0  0  0  0
  7 17  1  0  0  0  0
  7 18  1  0  0  0  0
  7 19  1  0  0  0  0
M  END
$$$$
