59			
			
Fe	12.209640	10.331180	5.248280
N	11.788500	10.179840	7.173930
N	11.506180	12.172030	5.045050
C	11.307700	11.036210	9.433610
H	12.206230	10.594020	9.877710
H	10.483590	10.343770	9.637660
H	11.097390	11.984130	9.934260
C	11.491210	11.237750	7.942480
C	11.316340	12.537760	7.432060
H	11.099040	13.301720	8.172720
C	11.237550	12.967030	6.088600
C	10.814320	14.407590	5.866990
H	10.356470	14.544340	4.883940
H	11.684290	15.072490	5.923110
H	10.105660	14.724670	6.636920
C	11.656910	8.858490	7.691190
C	12.784810	8.151440	8.171300
C	12.623850	6.826580	8.591360
H	13.488050	6.278440	8.961320
C	11.381930	6.196600	8.544020
H	11.275960	5.166480	8.874900
C	10.278290	6.897690	8.059660
H	9.310460	6.403120	8.012230
C	10.390220	8.222760	7.626720
C	11.289670	12.610030	3.706040
C	10.114580	12.178120	3.031720
C	9.923740	12.565720	1.702130
H	9.029860	12.245290	1.174730
C	10.860760	13.352880	1.032390
H	10.691950	13.644430	-0.001260
C	12.018270	13.749530	1.695400
H	12.755710	14.352040	1.169450
C	12.257210	13.388700	3.026910
N	11.807610	8.845300	4.011960
C	11.748640	9.052230	2.660040
H	11.569550	10.078010	2.353020
C	11.911670	8.043790	1.729920
H	11.852310	8.306160	0.677310
C	12.138790	6.711990	2.131010
C	12.169230	6.499840	3.518810
C	11.993640	7.549900	4.406290
N	14.235100	10.437100	5.037800
C	14.969900	9.716460	4.160050
C	16.351780	9.814100	4.059320
C	17.064460	10.686480	4.889790
C	16.293110	11.433240	5.799840
H	16.759360	12.136540	6.483230
C	14.919750	11.289990	5.843110
H	14.314330	11.864210	6.539320
H	12.324790	5.547100	3.883670
H	12.003900	7.342930	5.417270
H	16.856740	9.239080	3.366930
H	14.478540	9.060400	3.533010
H	12.273300	5.946270	1.452330
H	18.091230	10.776560	4.838110
H	13.710710	8.605500	8.210940
H	9.566160	8.729100	7.266770
H	9.416750	11.590430	3.514080
H	13.122780	13.684960	3.504430
