17			
			
Fe	3.969326	1.485045	1.232827
S	4.850112	0.330925	-0.654130
S	3.798613	-0.431149	2.636790
S	5.204420	3.276643	2.196796
S	1.997185	2.734314	0.769683
O	1.231226	6.248723	1.467477
O	4.219286	6.761574	2.767277
O	5.598403	-3.234621	-1.109864
O	4.597501	-3.945373	1.952000
C	3.923548	4.380955	1.998348
C	2.646439	4.165414	1.423899
C	2.233217	5.569089	1.662129
C	3.628180	5.807465	2.273326
C	4.809096	-1.183689	0.122536
C	4.394758	-1.486838	1.442764
C	4.682324	-2.930479	1.268527
C	5.146704	-2.598539	-0.163305
