39			
			
Fe	0.002140	0.002440	-0.168240
N	-2.047060	-0.167550	0.248180
C	-2.954620	0.865380	0.292360
C	-4.297840	0.330280	0.358020
C	-4.184000	-1.031800	0.359190
C	-2.770500	-1.336650	0.294360
C	-2.219360	-2.622690	0.302250
C	-0.859990	-2.953990	0.293760
C	-0.325280	-4.297460	0.357950
C	1.036880	-4.184250	0.355350
C	1.342100	-2.770860	0.289910
N	0.173010	-2.046920	0.246860
C	2.628100	-2.219800	0.294310
C	2.959150	-0.860400	0.285380
C	4.302810	-0.325190	0.344470
C	4.189050	1.036920	0.342350
C	2.775260	1.341640	0.282210
N	2.051690	0.172420	0.242130
C	2.224140	2.627560	0.288300
C	0.864920	2.958920	0.283660
C	0.330320	4.302640	0.344550
C	-1.031800	4.189300	0.346570
C	-1.337160	2.775580	0.287200
N	-0.168260	2.051690	0.243550
C	-2.623320	2.224670	0.296780
O	0.004650	0.006720	-2.000840
H	-1.768710	4.982170	0.394070
H	0.926360	5.206140	0.390040
H	-5.201480	0.925910	0.407050
H	-4.976420	-1.769030	0.409460
H	-0.921230	-5.200740	0.408680
H	1.773820	-4.977040	0.403450
H	4.981640	1.774210	0.387540
H	5.206460	-0.920810	0.391720
H	-2.921370	-3.451340	0.342770
H	-3.451950	2.926940	0.334560
H	3.456960	-2.921860	0.331580
H	2.926350	3.456340	0.322880
O	-0.056600	-0.066610	-3.346870
