87			
			
Fe	0.012547	1.057492	2.143337
N	1.635307	1.063315	1.006754
N	0.012595	3.046366	2.147677
N	-0.015300	-0.956546	2.111562
C	2.365842	-0.026476	0.583133
C	3.476274	0.376786	-0.243752
C	3.414685	1.749599	-0.341903
C	2.276161	2.165216	0.435799
C	1.887833	3.475861	0.617542
C	0.843910	3.896050	1.431431
C	0.512452	5.275835	1.674287
C	0.731545	-3.231648	1.926000
C	0.968675	-1.772482	1.603394
C	2.065962	-1.352999	0.897832
C	4.503397	-0.550270	-0.825465
C	5.581505	-0.966660	0.197356
C	4.360425	2.672897	-1.052743
C	5.429067	3.272823	-0.115381
C	1.233445	6.459357	1.095190
C	2.514180	6.814877	1.877947
C	1.664932	-3.714257	3.059926
C	1.551315	-5.220400	3.318241
H	2.461046	4.242836	0.107184
H	2.743531	-2.120735	0.538418
H	0.922769	-3.847279	1.039376
H	4.987780	-0.061811	-1.678352
H	4.014630	-1.450517	-1.217934
H	3.800913	3.487805	-1.527953
H	4.859112	2.125781	-1.860798
H	0.562172	7.325463	1.091022
H	1.492284	6.265418	0.046953
H	1.431739	-3.151297	3.973827
H	2.698166	-3.465334	2.789327
H	6.305975	-1.648556	-0.261313
H	6.120373	-0.088826	0.568384
H	5.129049	-1.471947	1.057099
H	6.034696	2.480814	0.337092
H	6.094726	3.943315	-0.669470
H	4.961350	3.842381	0.694875
H	3.015290	7.679817	1.430229
H	2.274131	7.053710	2.919614
H	3.215700	5.973246	1.879886
H	1.812983	-5.787517	2.417188
H	2.227328	-5.528102	4.123148
H	0.533717	-5.504114	3.608401
N	-1.607232	1.058240	3.301957
C	-0.836463	3.893989	2.845198
C	-0.988861	-1.771350	2.640622
C	-0.531664	5.274831	2.572096
C	-0.755968	-3.229928	2.315250
C	-2.349943	-0.028632	3.712287
C	-2.237379	2.158359	3.879039
C	-1.864669	3.471600	3.676580
C	-2.067822	-1.353611	3.374137
C	-1.276273	6.455910	3.125129
C	-1.691658	-3.705157	1.179473
H	-0.950128	-3.847624	3.199508
C	-3.452380	0.374192	4.549253
C	-3.372739	1.744462	4.665660
H	-2.442843	4.238462	4.181647
H	-2.742106	-2.121046	3.740233
C	-2.562467	6.768263	2.333014
H	-0.622302	7.334958	3.111448
H	-1.532885	6.279576	4.176983
C	-1.583414	-5.211533	0.919999
H	-1.455439	-3.142146	0.266440
H	-2.724027	-3.452586	1.449881
C	-4.485606	-0.550035	5.125018
C	-4.304450	2.669288	5.392898
H	-3.081576	7.632982	2.760167
H	-2.325436	6.987942	1.286461
H	-3.246603	5.912697	2.349316
H	-1.848821	-5.778116	1.820358
H	-2.259030	-5.516034	0.113669
H	-0.566277	-5.498753	0.631641
C	-5.573060	-0.946306	4.104253
H	-4.960787	-0.066643	5.985997
H	-4.002988	-1.458910	5.505358
C	-5.385957	3.272494	4.471827
H	-3.735559	3.481689	5.860834
H	-4.792739	2.122469	6.207419
H	-6.299887	-1.627934	4.559443
H	-6.107579	-0.060419	3.746111
H	-5.129859	-1.445234	3.236013
H	-6.000337	2.481931	4.028948
H	-6.041242	3.944589	5.036081
H	-4.929758	3.840471	3.653901
