62			
			
Fe	4.369040	19.449670	4.177640
P	2.586020	19.327740	5.635700
P	3.112450	19.050530	2.269020
P	5.104200	17.269400	4.422620
P	5.841660	21.214740	4.298850
B	2.162500	16.827520	4.032330
C	1.151500	15.529600	4.025160
C	0.680630	14.893950	2.859300
H	0.958630	15.292670	1.885450
C	-0.134790	13.755600	2.894140
H	-0.474060	13.302930	1.963780
C	-0.513570	13.198970	4.117050
H	-1.148020	12.316410	4.151900
C	-0.059850	13.796860	5.298020
H	-0.340090	13.375510	6.261960
C	0.751690	14.931820	5.241040
H	1.094250	15.367600	6.179610
C	1.474540	17.989240	5.019520
H	0.994690	17.537500	5.899700
H	0.663400	18.485350	4.467180
C	2.370540	17.375700	2.471690
H	1.422260	17.375930	1.916660
H	3.024200	16.672210	1.937600
C	3.596930	16.237310	4.662690
H	3.801200	15.229370	4.280740
H	3.490820	16.119050	5.751290
C	3.081820	18.705220	7.336840
H	3.353760	17.669100	7.091740
C	1.479750	20.834600	5.840380
H	1.335230	21.119500	4.789810
C	1.605860	20.161340	2.105810
H	1.048520	19.957200	3.027700
C	3.841750	19.185860	0.519440
H	3.228400	19.948840	0.024860
C	5.888580	16.616340	2.839230
H	5.289400	17.146690	2.088140
C	6.193870	16.786760	5.874890
H	5.499250	16.981500	6.704010
C	5.288660	22.825970	3.582000
H	6.071660	23.585490	3.684620
H	4.387490	23.166520	4.099710
H	5.049100	22.691730	2.523810
C	6.409150	21.792080	5.961580
H	7.089650	22.644730	5.859620
H	6.926800	20.981060	6.480990
H	5.544870	22.087640	6.562090
C	7.481230	21.019940	3.468930
H	7.338830	20.753890	2.418790
H	8.031800	20.213170	3.960880
H	8.064800	21.944980	3.534210
H	2.266220	18.748230	8.028100
H	3.853570	19.271270	7.815260
H	0.553160	20.583460	6.312880
H	1.886380	21.606120	6.460310
H	1.029120	19.902930	1.242390
H	1.854850	21.194740	1.983360
H	4.866360	19.491610	0.559320
H	3.826790	18.251190	-0.001210
H	6.924420	16.876610	2.774510
H	5.882880	15.550580	2.744260
H	7.068720	17.399730	5.936670
H	6.583880	15.791120	5.836220
