44			
			
Fe	-0.001700	-0.707310	0.016490
P	0.137350	-2.898180	-0.037980
H	1.404950	-3.487990	0.161120
S	-1.634680	-0.607110	-1.483260
S	-1.573660	-0.715750	1.705770
S	1.587990	-0.749360	-1.664470
S	1.609910	-0.489260	1.526320
C	-5.482560	0.003120	0.898350
C	-5.522470	0.058660	-0.503210
C	-4.343800	-0.123060	-1.221810
C	-3.137400	-0.333810	-0.544480
C	-3.075670	-0.401090	0.861570
C	-4.287200	-0.226950	1.569060
C	3.080970	-0.405830	-0.809580
C	3.122970	-0.264640	0.591250
C	4.301160	-0.272210	-1.509590
C	5.488060	-0.006230	-0.836510
C	5.509030	0.124500	0.560170
C	4.321080	-0.018520	1.271840
C	-1.266580	1.083570	-2.115390
C	1.214860	1.229840	2.054860
C	0.585560	2.000930	0.935460
C	-0.669590	1.931510	-1.035180
N	-0.034100	1.276120	-0.030430
C	-0.723940	3.321890	-1.084750
C	0.599960	3.392950	0.912220
C	-0.072780	4.066610	-0.104460
H	-6.396460	0.137910	1.471360
H	-6.458660	0.234390	-1.024310
H	-4.353520	-0.098220	-2.308840
H	-4.273000	-0.271040	2.655180
H	4.300950	-0.374530	-2.591760
H	6.409500	0.096810	-1.403880
H	6.438380	0.327280	1.083790
H	4.316610	0.063920	2.355970
H	-2.164410	1.525710	-2.552210
H	-0.532610	0.909180	-2.909540
H	2.110740	1.713910	2.449390
H	0.497220	1.092130	2.870700
H	-1.256540	3.806720	-1.896220
H	1.120140	3.934840	1.695200
H	-0.087680	5.151470	-0.133300
H	-0.195430	-3.550360	-1.245770
H	-0.609190	-3.708260	0.849740
