61			
			
Fe	5.040000	-0.801680	-6.333190
C	5.439980	2.033300	-1.365120
C	6.152190	1.215130	-2.244390
C	5.700630	1.034170	-3.559230
C	4.515310	1.665530	-3.999240
C	3.828370	2.500840	-3.106410
C	4.284350	2.687980	-1.799460
Si	3.943040	1.118630	-5.733020
C	2.052320	0.865750	-5.709690
C	1.639960	-0.472780	-5.896820
C	0.281860	-0.783520	-6.047750
C	-0.676150	0.231680	-6.005540
C	-0.283250	1.556060	-5.794420
C	1.071070	1.865820	-5.647450
P	3.019770	-1.699470	-5.861470
C	2.822240	-2.348380	-4.086780
P	6.569320	0.025880	-4.845760
C	7.433690	-1.327180	-3.869640
C	5.868070	-2.246570	-6.886110
O	6.419480	-3.222690	-7.263260
P	5.128170	0.274640	-8.323100
C	3.780290	0.079270	-9.650920
C	2.397450	-3.183900	-6.825860
C	8.038630	1.166510	-5.220510
C	5.035120	2.110710	-8.112300
C	4.353530	2.523450	-6.947080
C	4.164270	3.894360	-6.723100
C	4.663610	4.843390	-7.618060
C	5.361130	4.426800	-8.755040
C	5.537480	3.064560	-9.008630
C	6.649370	0.012720	-9.399440
H	5.770140	5.162090	-9.443350
H	6.087000	2.762100	-9.895530
H	6.622230	0.797310	-10.164840
H	4.527870	5.904480	-7.422250
H	7.044120	0.708960	-1.887190
H	-0.040400	-1.807800	-6.212630
H	2.908240	2.990280	-3.419430
H	1.361060	2.906050	-5.513640
H	-1.030410	2.345530	-5.762430
H	8.578080	0.640670	-6.014710
H	-1.727280	-0.011100	-6.138640
H	1.353440	-3.339540	-6.530160
H	3.648140	-3.060110	-3.974000
H	3.724380	-1.003270	-9.805750
H	7.898080	-0.845800	-3.001490
H	3.731740	3.325910	-1.113640
H	5.785210	2.156620	-0.341800
H	3.650380	4.233220	-5.825420
H	1.878530	-2.837180	-3.962740
H	2.847270	-1.567200	-3.356000
H	8.181550	-1.796540	-4.474030
H	6.739680	-2.081920	-3.563650
H	2.844100	0.464110	-9.304010
H	4.002060	0.616130	-10.549530
H	2.457770	-2.991870	-7.876760
H	2.988340	-4.051420	-6.618100
H	7.701920	2.124650	-5.557400
H	8.646760	1.356280	-4.360820
H	7.539030	0.099170	-8.811290
H	6.651100	-0.962030	-9.840750
