60			
			
Fe	12.569300	12.423560	10.868220
Cl	14.416480	13.476420	10.183940
N	12.040160	13.463740	12.348200
N	13.302320	11.123170	12.081690
N	12.330070	11.127350	9.467480
N	11.199460	13.465970	10.098140
C	11.240650	14.559490	12.128270
C	11.155040	15.321310	13.345060
C	11.933300	14.653280	14.293110
C	12.481030	13.487250	13.657250
C	13.280880	12.467150	14.149950
C	13.656660	11.335490	13.404350
C	14.413580	10.209850	13.888620
C	14.516810	9.308270	12.842160
C	13.827210	9.890020	11.721630
C	13.675320	9.336040	10.451410
C	12.965890	9.897030	9.390120
C	12.765350	9.326160	8.085250
C	12.002530	10.230650	7.364420
C	11.737640	11.347740	8.233580
C	10.970240	12.483350	7.916550
C	10.691030	13.503830	8.813680
C	9.894710	14.691920	8.683560
C	9.930600	15.357740	9.910230
C	10.754060	14.569860	10.785940
C	10.324120	16.544680	13.595550
C	12.137900	15.009730	15.736190
C	14.914570	10.052770	15.294870
C	15.162750	7.953580	12.846050
C	13.265580	7.980770	7.646940
C	11.476900	10.085050	5.966000
C	9.130060	15.084580	7.453270
C	9.283320	16.679510	10.202400
H	13.617880	12.524480	15.179850
H	14.140820	8.370730	10.276570
H	10.559260	12.547480	6.914120
H	10.352880	17.202770	12.722560
H	10.761170	17.111850	14.424780
H	11.952230	16.079550	15.880600
H	13.185250	14.832180	16.009440
H	15.301910	11.011670	15.660380
H	15.757460	9.352730	15.302410
H	15.703710	7.798330	11.904340
H	15.910580	7.910000	13.645780
H	14.283060	7.822320	8.025610
H	13.332900	7.958450	6.553780
H	12.114440	9.387010	5.412180
H	11.540360	11.047450	5.443830
H	9.015460	16.173250	7.421740
H	9.703730	14.805400	6.561450
H	8.889750	16.691670	11.222740
H	8.421370	16.813380	9.540270
H	9.322660	16.233950	13.808660
H	11.473290	14.418600	16.330960
H	14.107640	9.704920	15.905410
H	14.400040	7.215230	12.980290
H	12.595330	7.232680	8.015760
H	10.465260	9.740260	6.017020
H	8.179000	14.594840	7.476180
H	10.017110	17.446120	10.065390
