58			
			
Fe	0.000200	-0.021810	0.213290
O	0.004220	-0.001510	1.859370
N	1.566620	-1.393240	0.337520
N	1.534400	1.439920	0.139120
N	-1.544540	1.429050	0.146760
N	-1.555980	-1.404130	0.344590
C	2.632780	-0.603630	1.042470
H	3.564750	-1.180370	1.059150
H	2.288620	-0.454000	2.066220
C	2.843040	0.710480	0.340410
H	3.281860	0.552550	-0.645980
H	3.529360	1.347020	0.907500
C	1.300890	2.375430	1.298550
H	2.137630	3.085880	1.310620
H	1.338840	1.771800	2.205670
C	-0.008460	3.159930	1.230570
H	-0.008570	3.822560	2.103720
H	-0.012950	3.825620	0.362230
C	-1.312090	2.366520	1.304770
H	-1.341890	1.762990	2.212280
H	-2.153490	3.071340	1.320380
C	-2.847040	0.690450	0.354990
H	-3.534590	1.322370	0.925780
H	-3.289990	0.529380	-0.629050
C	-2.623650	-0.622150	1.055760
H	-3.551490	-1.205340	1.077930
H	-2.274660	-0.470040	2.077520
C	-1.246860	-2.588740	1.213890
H	-2.122250	-3.248470	1.177730
H	-1.140990	-2.208180	2.231980
C	0.013590	-3.344750	0.828500
H	0.013110	-3.641340	-0.225260
H	0.018090	-4.276740	1.402760
C	1.269360	-2.578770	1.209590
H	1.163490	-2.197520	2.227450
H	2.149730	-3.231720	1.171960
C	2.078010	-1.888360	-0.975260
H	2.942080	-2.537670	-0.799880
H	2.375370	-1.052780	-1.605110
H	1.295460	-2.452070	-1.481100
C	1.727550	2.250510	-1.102880
H	2.585020	2.916610	-0.956200
H	0.852580	2.853100	-1.321060
H	1.928130	1.586630	-1.940980
C	-1.749990	2.237680	-1.094610
H	-2.613690	2.895010	-0.944900
H	-1.946810	1.571410	-1.931790
H	-0.882060	2.849330	-1.315850
C	-2.070780	-1.901160	-0.966220
H	-2.932100	-2.553220	-0.787450
H	-1.288080	-2.462830	-1.474270
H	-2.372820	-1.066890	-1.595510
N	-0.003970	-0.085460	-1.796060
C	-0.004130	-0.110390	-2.951490
C	-0.003450	-0.146280	-4.394410
H	-0.624630	0.669190	-4.777520
H	-0.406160	-1.105550	-4.733340
H	1.021360	-0.029010	-4.759310
