38			
			
Fe	0.585652	-0.227757	9.033871
P	0.147787	-2.391866	9.458269
C	-0.828717	-2.613771	10.978218
C	1.595267	-3.475363	9.681114
C	-0.808987	-3.172835	8.121492
S	-0.830313	0.769834	10.374052
S	2.105968	-0.147461	10.608008
S	2.118400	-0.758059	7.561805
S	-0.813662	0.188434	7.402575
C	-0.032234	-0.364369	5.932057
C	-0.706985	-0.391077	4.700438
C	-0.049805	-0.841981	3.558773
C	1.283519	-1.271391	3.631811
C	1.962085	-1.251173	4.847229
C	1.308696	-0.796581	6.004608
C	1.280799	0.400707	12.057230
C	1.924564	0.422318	13.305346
C	1.233561	0.856204	14.433292
C	-0.102685	1.269488	14.328410
C	-0.750146	1.251406	13.096018
C	-0.062626	0.817551	11.950778
H	-1.799933	-2.131225	10.856112
H	-0.298112	-2.144722	11.811005
H	-0.954906	-3.683684	11.173209
H	2.194159	-3.115183	10.519596
H	2.198478	-3.466767	8.771722
H	1.236520	-4.489917	9.884239
H	-1.783090	-2.686262	8.045127
H	-0.931369	-4.238963	8.338436
H	-0.269992	-3.045531	7.178876
H	-1.740471	-0.060095	4.646886
H	-0.576021	-0.863527	2.608693
H	1.790640	-1.624532	2.738546
H	2.994253	-1.585057	4.908180
H	2.958893	0.098496	13.382223
H	1.732746	0.869299	15.397957
H	-0.639239	1.602238	15.212242
H	-1.786152	1.568392	13.012963
