42			
			
Fe	0.000180	-0.862770	-0.004210
N	-0.006710	-2.500640	-0.004830
O	-0.012730	-3.642910	-0.002700
S	-1.654830	-0.634480	-1.534040
S	-1.566200	-0.744960	1.706120
S	1.565780	-0.745250	-1.714490
S	1.657560	-0.651570	1.525520
C	-5.428050	0.120000	0.897590
C	-5.479500	0.158810	-0.501600
C	-4.319560	-0.071320	-1.234190
C	-3.117630	-0.314470	-0.559360
C	-3.047460	-0.370950	0.840870
C	-4.236260	-0.145230	1.563140
C	3.050100	-0.384820	-0.848970
C	3.121980	-0.337240	0.551520
C	4.239580	-0.162530	-1.571120
C	5.434000	0.089400	-0.905070
C	5.487440	0.117700	0.494300
C	4.326500	-0.108300	1.226660
C	-1.206670	1.046390	-2.105240
C	1.219590	1.028560	2.106890
C	0.620730	1.837100	1.001620
C	-0.611380	1.845910	-0.991670
N	0.004850	1.159940	0.001970
C	-0.642750	3.236100	-0.998520
C	0.648120	3.227320	1.022920
C	0.001230	3.937230	0.016250
H	-6.330080	0.293670	1.477350
H	-6.413720	0.360460	-1.015520
H	-4.340410	-0.057750	-2.320310
H	-4.213390	-0.179650	2.648430
H	4.215230	-0.189290	-2.656610
H	6.336580	0.260690	-1.484630
H	6.423910	0.308260	1.008410
H	4.348660	-0.102740	2.312830
H	-2.099550	1.511380	-2.527390
H	-0.475510	0.887390	-2.904640
H	2.117040	1.487710	2.525890
H	0.492960	0.868650	2.910230
H	-1.157550	3.752110	-1.801090
H	1.161790	3.736340	1.830660
H	-0.000890	5.022040	0.022440
