37			
			
Fe	2.810360	0.838660	3.701390
Cl	1.325110	-0.958600	4.077540
O	0.913410	4.121220	4.964700
O	4.729250	1.634980	7.233340
O	6.426870	-1.055630	3.986380
O	3.927050	0.647870	-0.121120
O	-0.920820	0.646890	1.639250
N	1.450140	2.182580	3.827710
N	3.392220	1.544500	5.382240
N	4.533090	0.069500	3.376930
N	2.641930	0.784950	1.795490
C	1.622720	3.115770	4.805740
C	2.737210	2.809630	5.805610
C	4.402570	1.072150	6.175360
C	5.103340	-0.239710	5.800730
C	5.407530	-0.421970	4.307160
C	4.933570	-0.031280	1.950640
C	3.793940	0.539870	1.106640
C	1.374540	0.832870	1.038090
C	0.157370	1.127530	1.950070
C	0.181280	2.194130	3.071250
C	4.163050	-1.433140	6.192380
C	6.430840	-0.347180	6.592100
H	4.749510	-2.349140	6.050270
H	3.330810	-1.462950	5.482970
H	6.844640	-1.341060	6.395400
H	6.189160	-0.293080	7.656320
H	2.325100	2.695670	6.786470
H	3.448150	3.608950	5.829290
H	5.828490	0.530720	1.782770
H	5.122060	-1.050590	1.685340
H	1.224430	-0.111430	0.557810
H	1.448990	1.626130	0.323880
H	-0.624700	2.000520	3.747870
H	0.082520	3.155260	2.611480
H	3.799370	-1.334030	7.193790
H	7.116500	0.425930	6.314470
