94			
			
Fe	12.765522	10.128425	6.747212
C	12.647287	9.290964	3.904283
C	11.874635	9.688508	5.000188
C	10.486286	9.805101	4.877704
C	9.871931	9.522343	3.653180
C	10.639117	9.124003	2.555577
C	12.025525	9.008870	2.683013
N	14.113492	11.265379	6.086809
C	15.354483	10.991234	5.558841
C	15.883894	12.208724	5.020109
C	14.940625	13.223794	5.242632
C	13.830598	12.625902	5.919076
C	15.888272	9.698285	5.615184
C	15.253445	8.603470	6.212865
N	13.996820	8.659723	6.825936
C	13.719332	7.387629	7.314526
C	14.820350	6.511654	7.005610
C	15.764748	7.261861	6.322686
C	12.537846	7.064069	7.986656
C	11.491990	7.943858	8.276434
N	11.504379	9.288451	7.922651
C	10.305145	9.847784	8.377729
C	9.528322	8.820711	9.021644
C	10.261464	7.646271	8.963012
C	9.956976	11.195752	8.227596
C	10.757162	12.154546	7.595768
N	11.966101	11.808549	7.036757
C	12.563807	12.947682	6.485219
C	11.681672	14.053793	6.704795
C	10.560972	13.559385	7.388369
C	11.870954	15.478366	6.271039
C	11.490952	15.709065	4.794478
C	9.328206	14.312147	7.793006
C	8.177067	14.150426	6.776838
C	8.155180	9.021056	9.593295
C	7.055296	9.015982	8.510499
C	9.860146	6.284365	9.448947
C	14.905732	5.067320	7.403922
C	15.387127	4.875026	8.857268
C	17.106405	6.812593	5.820511
C	18.257781	7.159804	6.787776
C	17.207114	12.327436	4.322041
C	17.200394	11.711186	2.906462
C	15.102015	14.655494	4.813009
C	14.911204	14.857606	3.295912
C	9.272962	5.402077	8.326666
H	9.005617	11.515706	8.640567
H	12.424873	6.036769	8.318970
H	16.868533	9.530146	5.180597
H	11.256091	16.129597	6.901943
H	12.909054	15.784281	6.436776
H	11.690776	16.745189	4.501580
H	10.427781	15.502633	4.634731
H	12.062461	15.048344	4.136448
H	9.561477	15.376680	7.905536
H	8.989508	13.958481	8.774486
H	7.292114	14.706130	7.105457
H	7.902486	13.095972	6.667761
H	8.475266	14.524028	5.791998
H	7.944559	8.231625	10.323174
H	8.115188	9.971979	10.139528
H	6.068971	9.171930	8.960921
H	7.044991	8.060643	7.975737
H	7.229315	9.810089	7.776794
H	9.119583	6.385665	10.250417
H	10.728268	5.776287	9.887050
H	8.374812	5.863700	7.904060
H	9.004757	4.413157	8.713836
H	9.997869	5.271104	7.516548
H	15.589329	4.542884	6.726812
H	13.923599	4.592309	7.286247
H	15.425825	3.810580	9.112280
H	14.711903	5.374155	9.560245
H	16.387564	5.298864	8.992090
H	17.088175	5.729037	5.658248
H	17.308158	7.270812	4.843950
H	19.217732	6.824964	6.380330
H	18.106969	6.674943	7.757887
H	18.312542	8.240487	6.955930
H	17.495511	13.382418	4.257644
H	17.980728	11.827337	4.919715
H	18.180392	11.828864	2.431345
H	16.448585	12.194942	2.274904
H	16.963483	10.643389	2.948695
H	16.104402	15.004752	5.091443
H	14.396534	15.288336	5.353355
H	14.957093	15.922198	3.042897
H	13.943561	14.465392	2.968090
H	15.690963	14.337826	2.731915
H	9.881696	10.116040	5.725760
H	8.792252	9.615881	3.561669
H	10.159177	8.905031	1.605495
H	12.630249	8.700561	1.833366
H	13.726758	9.200880	3.994052
