40			
			
Fe	5.440558	1.426760	3.177606
Cl	5.158880	3.450472	2.233073
S	7.643450	0.489954	3.395600
S	3.359879	0.630967	3.978813
O	5.430714	0.215354	1.621688
O	5.638378	1.968297	5.096798
C	7.538920	-0.609317	2.082843
C	8.648445	-1.550269	1.815416
C	9.947049	-1.052206	1.626406
C	11.003206	-1.931486	1.397878
C	10.777795	-3.310646	1.376166
C	9.489992	-3.810495	1.582719
C	8.426353	-2.936256	1.800268
N	6.444829	-0.617795	1.336900
C	6.202062	-1.409589	0.122226
C	3.344204	1.704405	5.326440
C	2.080514	1.941030	6.055457
C	0.937062	2.334862	5.341924
C	-0.269377	2.529880	6.009835
C	-0.352395	2.313634	7.388197
C	0.777611	1.902649	8.098858
C	1.991304	1.718092	7.439020
N	4.477497	2.273561	5.710983
C	4.643660	3.298124	6.751771
H	10.118748	0.019795	1.648272
H	12.003108	-1.539406	1.237322
H	11.604572	-3.993604	1.203624
H	9.312021	-4.881857	1.579435
H	7.427890	-3.326439	1.973719
H	5.447326	-2.168021	0.339424
H	5.832605	-0.719903	-0.638122
H	7.131158	-1.873861	-0.201578
H	1.004436	2.494802	4.270023
H	-1.146080	2.848504	5.453631
H	-1.296478	2.459182	7.905363
H	0.714491	1.718742	9.167339
H	2.864121	1.382111	7.991014
H	5.186161	2.863048	7.593673
H	5.227530	4.106355	6.308694
H	3.667785	3.660567	7.068736
