35			
			
Fe	7.009000	4.695932	6.666011
S	6.804497	6.013435	4.845644
N	7.323973	5.802273	7.985045
S	8.866825	3.444303	6.860999
N	5.593050	3.400405	6.254113
C	7.851866	7.433166	5.053377
C	9.003617	2.331217	5.484734
C	9.136775	7.322164	5.612540
H	9.481591	6.349922	5.955548
C	9.953483	8.442454	5.735002
H	10.941693	8.330639	6.177281
O	7.977804	6.627323	8.534789
C	9.323052	0.488287	3.345052
C	7.416662	8.695426	4.620972
H	6.424650	8.804862	4.190650
O	5.163392	3.884849	7.350895
C	8.223999	2.436408	4.321761
H	7.495629	3.237113	4.237202
C	9.529517	9.708443	5.300710
C	8.248464	9.809874	4.743098
H	7.888734	10.778500	4.401685
C	10.105080	0.395663	4.505367
H	10.847873	-0.395321	4.589988
C	9.952298	1.295246	5.558627
H	10.572030	1.197110	6.446572
C	8.386307	1.529108	3.276034
H	7.769638	1.635375	2.385342
C	10.430145	10.914488	5.424958
H	10.805000	11.024763	6.449106
H	9.900630	11.831912	5.151716
H	11.304829	10.820840	4.769205
C	9.465289	-0.514290	2.224831
H	8.817605	-1.384601	2.395395
H	10.493835	-0.881678	2.149895
H	9.180511	-0.077335	1.262525
