50			
			
Fe	-4.492570	-0.096320	0.847820
Fe	-2.054660	-0.157130	-1.789610
C	-1.813660	-1.875500	-1.459220
C	-4.969040	2.999280	0.925470
C	-6.249510	-0.257510	0.804750
C	-4.408740	0.041750	2.840480
C	-4.294330	-1.844000	1.009110
C	-2.107250	-0.591260	-3.740720
C	-0.313290	0.130170	-1.777170
C	-4.142080	1.410610	-2.161450
S	-4.408720	-0.238460	-1.600010
S	-2.183280	0.352810	0.608390
O	-1.664640	-3.009190	-1.274240
O	-4.155250	-2.985570	1.147960
O	0.835680	0.261970	-1.698400
O	-7.392040	-0.434060	0.719920
O	-3.105390	-0.364160	-4.402920
C	-0.869780	-1.168610	-4.413420
H	-0.133600	-0.361770	-4.517270
H	-1.116210	-1.559320	-5.405540
H	-0.413360	-1.946010	-3.794520
O	-3.501840	0.645880	3.386530
C	-5.517750	-0.577970	3.678110
H	-5.758910	-1.583080	3.321080
H	-6.419720	0.034770	3.556400
H	-5.237840	-0.599780	4.735860
N	-4.211750	1.881960	0.818590
C	-2.865400	1.974350	0.714200
C	-2.193970	3.191310	0.700110
C	-2.961220	4.348520	0.792630
C	-4.349030	4.249390	0.905800
C	-6.451570	2.842560	1.058480
H	-6.694570	2.226970	1.931260
H	-6.867270	2.346530	0.175060
H	-6.933400	3.815360	1.169820
H	-1.113360	3.219300	0.616820
H	-2.483250	5.323370	0.778410
H	-4.961470	5.141290	0.982050
N	-2.811460	1.626370	-2.282410
C	-2.348280	2.822830	-2.714460
C	-3.256430	3.839770	-3.013160
C	-4.629240	3.622250	-2.883990
C	-5.091920	2.382130	-2.454860
C	-0.868790	3.003810	-2.851970
H	-0.636440	4.001570	-3.228380
H	-0.455030	2.261230	-3.542570
H	-0.373260	2.871710	-1.884410
H	-2.879290	4.799710	-3.348950
H	-5.331970	4.415900	-3.118460
H	-6.148750	2.165060	-2.346420
