43

Fe         0.04865        1.82987       18.39216
N         -0.63854        0.00296       18.36938
N         -0.50363        1.99930       20.25635
C         -1.43518       -0.60279       19.26712
C         -1.86254       -0.00367       20.46899
C         -1.31096        1.19365       20.96732
C         -0.25552       -0.77480       17.22653
C         -1.09716       -0.83227       16.10003
C         -0.66866       -1.55738       14.98070
H         -1.30573       -1.59476       14.09941
C          0.55300       -2.22994       14.98476
H          0.87192       -2.78779       14.10811
C          1.36384       -2.18658       16.12094
H          2.31382       -2.71686       16.13161
C          0.97396       -1.46360       17.25246
C          0.00919        3.15344       20.93708
C          1.28197        3.08115       21.53773
C          1.79816        4.22214       22.15952
H          2.78273        4.17591       22.62024
C          1.06848        5.41255       22.18986
H          1.48442        6.29549       22.66844
C         -0.19774        5.46275       21.60773
H         -0.77245        6.38630       21.63666
C         -0.75095        4.33655       20.98488
C          1.43934        3.46041       18.35096
H          1.91932        3.94409       19.19291
C          0.16392        3.91541       17.93268
C         -0.54724        3.24478       16.90965
H         -1.53714        3.57249       16.61144
C          0.07513        2.14219       16.27718
H         -0.45663        1.58385       15.51654
C          1.34931        1.68449       16.69623
H          1.75877        0.78653       16.24950
C          2.03460        2.32272       17.75666
H          2.99801        1.95800       18.09634
H         -1.54052        1.46799       21.93534
H         -2.00996       -0.35079       16.09864
H          1.57507       -1.43484       18.09082
H          1.82291        2.20248       21.51901
H         -1.69524        4.37379       20.57022
H         -2.61324       -0.46237       21.00850
H         -1.75259       -1.56354       19.06406
H         -0.25176        4.74717       18.38035
