51			
			
Fe	2.087610	2.888370	5.265920
N	3.114040	4.539050	5.106920
N	2.267920	2.431830	3.314960
C	1.609160	1.199330	3.006760
C	2.901650	3.188530	2.407590
C	0.659260	2.335180	8.143150
C	2.360790	0.003440	2.992650
C	1.263300	1.262680	5.842420
H	1.029300	0.260190	5.509250
C	3.717220	5.023810	4.008950
C	3.135120	5.144830	6.401630
C	3.584800	4.362940	2.780690
H	4.082110	4.858830	1.962190
C	4.095770	4.723910	7.350960
C	1.202720	2.120760	6.813710
C	2.957860	2.935900	0.858460
C	-0.429720	-0.053530	2.685040
H	-1.510740	-0.083490	2.566980
C	0.204880	1.179810	2.867220
C	4.596880	6.314490	3.928670
C	0.511050	3.628350	10.195930
H	0.827220	4.484200	10.787060
C	4.091170	5.329460	8.611750
H	4.827150	5.026080	9.352160
C	2.182510	6.677400	8.007400
H	1.438840	7.420650	8.280420
C	-0.432620	2.733110	10.706070
H	-0.855810	2.887540	11.695020
C	0.296090	-1.242690	2.658570
H	-0.213550	-2.192820	2.519960
C	2.147610	6.103420	6.733790
C	3.155060	6.309430	8.937880
H	3.166970	6.768080	9.923000
C	-0.292830	1.435330	8.667270
H	-0.604860	0.584910	8.066400
C	-0.833590	1.635920	9.934760
H	-1.569350	0.936980	10.324510
C	1.681440	-1.206470	2.819570
H	2.242930	-2.137220	2.805750
C	1.047100	3.433640	8.924820
H	1.774330	4.127620	8.524150
H	3.536550	3.705780	0.392300
H	3.410210	1.985050	0.668320
H	4.942590	6.448640	2.924980
H	5.436290	6.215410	4.584790
H	4.013580	7.162440	4.221320
H	1.420300	6.371530	6.052490
H	3.386230	0.022210	3.107280
H	4.782250	3.989010	7.119220
H	1.965110	2.944770	0.459380
H	-0.341100	2.054980	2.898840
