62			
			
Fe	12.376051	0.368423	1.244652
Li	11.505997	1.131863	3.739315
C	9.402662	5.140719	1.546228
C	9.037879	3.792772	1.516699
C	9.949297	2.806447	1.133565
C	11.260966	3.164863	0.753161
C	11.619155	4.526027	0.807603
C	10.705230	5.503926	1.194218
C	12.240271	2.182175	0.270718
C	11.941925	1.092126	-0.617232
C	10.613512	0.655715	-1.05359
C	9.454899	0.783173	-0.24774
C	8.223846	0.332691	-0.728546
C	8.104972	-0.259998	-1.988657
C	9.245169	-0.406428	-2.783817
C	10.478362	0.045113	-2.317657
C	9.578255	1.343271	1.163208
N	10.571100	0.627793	1.978711
C	10.162028	-0.764471	2.233038
C	11.271414	-1.403621	3.086763
N	12.497860	-0.602060	2.877611
C	13.700023	-1.374971	3.230483
C	14.935157	-0.502793	3.208768
C	15.233055	0.271434	2.061207
C	16.361297	1.118271	2.105532
C	17.178984	1.184492	3.229272
C	16.889593	0.398845	4.348734
C	15.771897	-0.436578	4.325493
C	14.402509	0.251513	0.858714
C	13.709404	-0.898820	0.34467
C	13.813045	-2.265185	0.885564
C	13.881106	-2.539613	2.268756
C	14.037724	-3.851601	2.716869
C	14.106554	-4.916665	1.814386
C	14.015191	-4.660254	0.443992
C	13.869235	-3.349192	-0.010049
H	12.725386	0.866199	-1.343425
H	13.569997	-0.898301	-0.73565
H	14.705793	0.982543	0.106939
H	13.233571	2.611283	0.134417
H	10.998912	-1.434669	4.153672
H	7.139635	-0.617732	-2.337123
H	13.589707	-1.787133	4.246052
H	11.427515	-2.446893	2.774028
H	10.040710	-1.335597	1.294954
H	9.184731	-0.801457	2.745813
H	8.584327	1.251946	1.632828
H	17.515124	0.450178	5.235709
H	8.685547	5.894785	1.859538
H	14.206904	-5.935845	2.178169
H	11.363538	-0.062955	-2.941594
H	13.811576	-3.151723	-1.078942
H	16.589166	1.728884	1.234097
H	12.628863	4.814655	0.522505
H	14.078690	-4.042496	3.787577
H	15.528280	-1.036081	5.200244
H	7.346194	0.430128	-0.091894
H	9.173867	-0.871899	-3.763746
H	8.033560	3.496078	1.812802
H	14.054875	-5.478938	-0.270077
H	18.038946	1.849468	3.234792
H	11.009661	6.547040	1.224751
