
 OpenBabel02081817013D

 54 58  0  0  0  0  0  0  0  0999 V2000
    0.0000    0.0000    0.0000 Fe  0  0  0  0  0  0  0  0  0  0  0  0
   -1.4922    0.4803    2.1849 I   0  0  0  0  0  0  0  0  0  0  0  0
    1.1113   -0.5746   -1.9009 P   0  0  0  0  0  0  0  0  0  0  0  0
   -0.3684   -1.9826    0.1484 O   0  0  0  0  0  0  0  0  0  0  0  0
   -2.3279    0.9263   -1.5285 O   0  0  0  0  0  0  0  0  0  0  0  0
    1.0383    2.7201    0.2178 O   0  0  0  0  0  0  0  0  0  0  0  0
    1.2782   -0.9598    1.1676 N   0  0  0  0  0  0  0  0  0  0  0  0
    0.6443   -2.1435    0.9711 C   0  0  0  0  0  0  0  0  0  0  0  0
    1.0793   -3.3162    1.6042 C   0  0  0  0  0  0  0  0  0  0  0  0
    0.5765   -4.2590    1.4210 H   0  0  0  0  0  0  0  0  0  0  0  0
    2.1661   -3.1992    2.4591 C   0  0  0  0  0  0  0  0  0  0  0  0
    2.5434   -4.0807    2.9701 H   0  0  0  0  0  0  0  0  0  0  0  0
    2.7848   -1.9578    2.6783 C   0  0  0  0  0  0  0  0  0  0  0  0
    3.6296   -1.8706    3.3528 H   0  0  0  0  0  0  0  0  0  0  0  0
    2.3192   -0.8262    2.0163 C   0  0  0  0  0  0  0  0  0  0  0  0
    2.9080    0.5402    2.1922 C   0  0  0  0  0  0  0  0  0  0  0  0
    3.2343    0.9504    1.2298 H   0  0  0  0  0  0  0  0  0  0  0  0
    3.7646    0.5111    2.8683 H   0  0  0  0  0  0  0  0  0  0  0  0
    2.1558    1.2247    2.6013 H   0  0  0  0  0  0  0  0  0  0  0  0
    2.3252   -1.9074   -1.6416 C   0  0  0  0  0  0  0  0  0  0  0  0
    2.0739   -3.2093   -2.0954 C   0  0  0  0  0  0  0  0  0  0  0  0
    1.1715   -3.4277   -2.6570 H   0  0  0  0  0  0  0  0  0  0  0  0
    2.9818   -4.2324   -1.8214 C   0  0  0  0  0  0  0  0  0  0  0  0
    2.7781   -5.2386   -2.1763 H   0  0  0  0  0  0  0  0  0  0  0  0
    4.1421   -3.9655   -1.0937 C   0  0  0  0  0  0  0  0  0  0  0  0
    4.8453   -4.7651   -0.8781 H   0  0  0  0  0  0  0  0  0  0  0  0
    4.3971   -2.6696   -0.6381 C   0  0  0  0  0  0  0  0  0  0  0  0
    5.2950   -2.4563   -0.0659 H   0  0  0  0  0  0  0  0  0  0  0  0
    3.4916   -1.6470   -0.9046 C   0  0  0  0  0  0  0  0  0  0  0  0
    3.6931   -0.6450   -0.5382 H   0  0  0  0  0  0  0  0  0  0  0  0
   -0.0094   -1.1993   -3.2081 C   0  0  0  0  0  0  0  0  0  0  0  0
    0.2799   -0.9637   -4.5612 C   0  0  0  0  0  0  0  0  0  0  0  0
    1.1569   -0.3895   -4.8427 H   0  0  0  0  0  0  0  0  0  0  0  0
   -0.5626   -1.4628   -5.5544 C   0  0  0  0  0  0  0  0  0  0  0  0
   -0.3316   -1.2726   -6.5987 H   0  0  0  0  0  0  0  0  0  0  0  0
   -1.6978   -2.1992   -5.2082 C   0  0  0  0  0  0  0  0  0  0  0  0
   -2.3546   -2.5825   -5.9838 H   0  0  0  0  0  0  0  0  0  0  0  0
   -1.9878   -2.4391   -3.8634 C   0  0  0  0  0  0  0  0  0  0  0  0
   -1.1499   -1.9423   -2.8657 C   0  0  0  0  0  0  0  0  0  0  0  0
   -1.3701   -2.1390   -1.8220 H   0  0  0  0  0  0  0  0  0  0  0  0
    2.0070    0.7835   -2.7311 C   0  0  0  0  0  0  0  0  0  0  0  0
    1.3124    1.9824   -2.9575 C   0  0  0  0  0  0  0  0  0  0  0  0
    0.2893    2.0956   -2.6094 H   0  0  0  0  0  0  0  0  0  0  0  0
    1.9194    3.0320   -3.6418 C   0  0  0  0  0  0  0  0  0  0  0  0
    1.3696    3.9531   -3.8115 H   0  0  0  0  0  0  0  0  0  0  0  0
    3.2314    2.8983   -4.1044 C   0  0  0  0  0  0  0  0  0  0  0  0
    3.7077    3.7186   -4.6337 H   0  0  0  0  0  0  0  0  0  0  0  0
    3.9259    1.7076   -3.8893 C   0  0  0  0  0  0  0  0  0  0  0  0
    4.9427    1.5941   -4.2543 H   0  0  0  0  0  0  0  0  0  0  0  0
    3.3175    0.6500   -3.2110 C   0  0  0  0  0  0  0  0  0  0  0  0
    3.8626   -0.2770   -3.0698 H   0  0  0  0  0  0  0  0  0  0  0  0
   -1.4125    0.5440   -0.9391 C   0  0  0  0  0  0  0  0  0  0  0  0
    0.6239    1.6468    0.1155 C   0  0  0  0  0  0  0  0  0  0  0  0
   -2.8249   -2.9857   -3.6072 H   0  0  0  0  0  0  0  0  0  0  0  0
  1 53  1  0  0  0  0
  1  4  1  0  0  0  0
  1  7  1  0  0  0  0
  1  2  1  0  0  0  0
  3 20  1  0  0  0  0
  3  1  1  0  0  0  0
  4  8  1  0  0  0  0
  5 52  1  0  0  0  0
  7 15  1  0  0  0  0
  8  7  1  0  0  0  0
  8  9  2  0  0  0  0
  9 11  1  0  0  0  0
 10  9  1  0  0  0  0
 11 13  1  0  0  0  0
 11 12  1  0  0  0  0
 13 14  1  0  0  0  0
 15 16  1  0  0  0  0
 15 13  2  0  0  0  0
 16 19  1  0  0  0  0
 16 18  1  0  0  0  0
 17 16  1  0  0  0  0
 20 29  2  0  0  0  0
 21 23  2  0  0  0  0
 21 20  1  0  0  0  0
 22 21  1  0  0  0  0
 23 25  1  0  0  0  0
 24 23  1  0  0  0  0
 25 26  1  0  0  0  0
 25 27  2  0  0  0  0
 27 28  1  0  0  0  0
 29 27  1  0  0  0  0
 29 30  1  0  0  0  0
 31 39  1  0  0  0  0
 31  3  1  0  0  0  0
 32 31  2  0  0  0  0
 33 32  1  0  0  0  0
 34 36  2  0  0  0  0
 34 32  1  0  0  0  0
 35 34  1  0  0  0  0
 36 38  1  0  0  0  0
 37 36  1  0  0  0  0
 38 39  2  0  0  0  0
 38 54  1  0  0  0  0
 39 40  1  0  0  0  0
 41  3  1  0  0  0  0
 42 41  1  0  0  0  0
 42 43  1  0  0  0  0
 44 42  2  0  0  0  0
 45 44  1  0  0  0  0
 46 48  2  0  0  0  0
 46 44  1  0  0  0  0
 47 46  1  0  0  0  0
 48 50  1  0  0  0  0
 49 48  1  0  0  0  0
 50 51  1  0  0  0  0
 50 41  2  0  0  0  0
 52  1  1  0  0  0  0
 53  6  1  0  0  0  0
M  END
