
 OpenBabel02081817023D

 59 63  0  0  0  0  0  0  0  0999 V2000
    0.1744    0.2079    0.4105 Fe  0  0  0  0  0  0  0  0  0  0  0  0
    1.7005    1.0021    0.0403 C   0  0  0  0  0  0  0  0  0  0  0  0
   -4.4548    1.3174    0.5404 H   0  0  0  0  0  0  0  0  0  0  0  0
   -2.0600   -0.5832    0.5104 S   0  0  0  0  0  0  0  0  0  0  0  0
    2.9739   -0.0372    2.1644 H   0  0  0  0  0  0  0  0  0  0  0  0
    1.0189   -1.3382    0.4683 C   0  0  0  0  0  0  0  0  0  0  0  0
   -0.1216    0.1138   -1.5905 C   0  0  0  0  0  0  0  0  0  0  0  0
    2.7229    1.4530   -0.2747 O   0  0  0  0  0  0  0  0  0  0  0  0
    1.6102   -2.3357    0.5142 O   0  0  0  0  0  0  0  0  0  0  0  0
    0.2468    4.8234    0.2105 H   0  0  0  0  0  0  0  0  0  0  0  0
   -4.3555    3.8203    0.3614 H   0  0  0  0  0  0  0  0  0  0  0  0
    0.9689    3.4005    0.9956 H   0  0  0  0  0  0  0  0  0  0  0  0
   -0.5131   -2.0094   -1.6922 H   0  0  0  0  0  0  0  0  0  0  0  0
   -1.1043    1.7581    0.3821 N   0  0  0  0  0  0  0  0  0  0  0  0
   -2.2006    3.8596    0.2551 C   0  0  0  0  0  0  0  0  0  0  0  0
   -3.4448    3.2285    0.3586 C   0  0  0  0  0  0  0  0  0  0  0  0
    0.8085    3.4478   -0.7660 H   0  0  0  0  0  0  0  0  0  0  0  0
   -0.3864   -1.1990   -3.2938 H   0  0  0  0  0  0  0  0  0  0  0  0
    1.0691   -1.5062   -2.3026 H   0  0  0  0  0  0  0  0  0  0  0  0
   -1.0296    3.1048    0.2701 C   0  0  0  0  0  0  0  0  0  0  0  0
   -3.5113    1.8465    0.4608 C   0  0  0  0  0  0  0  0  0  0  0  0
    0.0047   -1.2414   -2.2721 C   0  0  0  0  0  0  0  0  0  0  0  0
   -0.3899    1.1014   -2.2543 O   0  0  0  0  0  0  0  0  0  0  0  0
    0.3253    3.7351    0.1739 C   0  0  0  0  0  0  0  0  0  0  0  0
   -2.3081    1.1358    0.4542 C   0  0  0  0  0  0  0  0  0  0  0  0
   -2.1316    4.9392    0.1755 H   0  0  0  0  0  0  0  0  0  0  0  0
    0.2020    0.3272    2.7769 P   0  0  0  0  0  0  0  0  0  0  0  0
   -2.3069   -0.5480    4.0363 H   0  0  0  0  0  0  0  0  0  0  0  0
    1.1767   -0.5234    5.4341 H   0  0  0  0  0  0  0  0  0  0  0  0
    0.1586   -1.2767    3.6798 C   0  0  0  0  0  0  0  0  0  0  0  0
   -0.4470   -2.4022    3.1057 C   0  0  0  0  0  0  0  0  0  0  0  0
   -0.5149   -3.6076    3.8057 C   0  0  0  0  0  0  0  0  0  0  0  0
    0.0255   -3.7033    5.0889 C   0  0  0  0  0  0  0  0  0  0  0  0
    0.6323   -2.5867    5.6697 C   0  0  0  0  0  0  0  0  0  0  0  0
    0.6992   -1.3816    4.9713 C   0  0  0  0  0  0  0  0  0  0  0  0
   -0.8785   -2.3338    2.1134 H   0  0  0  0  0  0  0  0  0  0  0  0
   -0.9885   -4.4702    3.3452 H   0  0  0  0  0  0  0  0  0  0  0  0
   -0.0229   -4.6423    5.6334 H   0  0  0  0  0  0  0  0  0  0  0  0
    1.0567   -2.6528    6.6678 H   0  0  0  0  0  0  0  0  0  0  0  0
    1.7042    1.1060    3.4882 C   0  0  0  0  0  0  0  0  0  0  0  0
    1.6873    2.0241    4.5480 C   0  0  0  0  0  0  0  0  0  0  0  0
    2.8832    2.5318    5.0597 C   0  0  0  0  0  0  0  0  0  0  0  0
    4.1073    2.1171    4.5333 C   0  0  0  0  0  0  0  0  0  0  0  0
    4.1339    1.1860    3.4918 C   0  0  0  0  0  0  0  0  0  0  0  0
    2.9411    0.6894    2.9714 C   0  0  0  0  0  0  0  0  0  0  0  0
    0.7458    2.3389    4.9857 H   0  0  0  0  0  0  0  0  0  0  0  0
    2.8542    3.2476    5.8764 H   0  0  0  0  0  0  0  0  0  0  0  0
    5.0360    2.5135    4.9340 H   0  0  0  0  0  0  0  0  0  0  0  0
    5.0818    0.8497    3.0813 H   0  0  0  0  0  0  0  0  0  0  0  0
   -1.2152    1.2352    3.4899 C   0  0  0  0  0  0  0  0  0  0  0  0
   -1.2674    2.6367    3.4254 C   0  0  0  0  0  0  0  0  0  0  0  0
   -2.3939    3.3245    3.8697 C   0  0  0  0  0  0  0  0  0  0  0  0
   -3.4922    2.6213    4.3692 C   0  0  0  0  0  0  0  0  0  0  0  0
   -3.4542    1.2273    4.4271 C   0  0  0  0  0  0  0  0  0  0  0  0
   -2.3237    0.5361    3.9905 C   0  0  0  0  0  0  0  0  0  0  0  0
   -0.4270    3.1960    3.0260 H   0  0  0  0  0  0  0  0  0  0  0  0
   -2.4177    4.4087    3.8118 H   0  0  0  0  0  0  0  0  0  0  0  0
   -4.3746    3.1575    4.7072 H   0  0  0  0  0  0  0  0  0  0  0  0
   -4.3064    0.6730    4.8107 H   0  0  0  0  0  0  0  0  0  0  0  0
  1  6  1  0  0  0  0
  1  4  1  0  0  0  0
  1 27  1  0  0  0  0
  2  1  1  0  0  0  0
  5 45  1  0  0  0  0
  6  9  1  0  0  0  0
  7  1  1  0  0  0  0
  8  2  1  0  0  0  0
 14  1  1  0  0  0  0
 14 25  1  0  0  0  0
 15 20  2  0  0  0  0
 15 16  1  0  0  0  0
 16 11  1  0  0  0  0
 16 21  1  0  0  0  0
 17 24  1  0  0  0  0
 18 22  1  0  0  0  0
 19 22  1  0  0  0  0
 20 14  1  0  0  0  0
 21  3  1  0  0  0  0
 22 13  1  0  0  0  0
 22  7  1  0  0  0  0
 23  7  2  0  0  0  0
 24 10  1  0  0  0  0
 24 20  1  0  0  0  0
 24 12  1  0  0  0  0
 25 21  2  0  0  0  0
 25  4  1  0  0  0  0
 26 15  1  0  0  0  0
 27 40  1  0  0  0  0
 27 50  1  0  0  0  0
 27 30  1  0  0  0  0
 30 35  1  0  0  0  0
 31 30  2  0  0  0  0
 31 32  1  0  0  0  0
 32 33  2  0  0  0  0
 33 38  1  0  0  0  0
 33 34  1  0  0  0  0
 34 39  1  0  0  0  0
 35 29  1  0  0  0  0
 35 34  2  0  0  0  0
 36 31  1  0  0  0  0
 37 32  1  0  0  0  0
 40 41  1  0  0  0  0
 41 46  1  0  0  0  0
 41 42  2  0  0  0  0
 42 47  1  0  0  0  0
 43 48  1  0  0  0  0
 43 42  1  0  0  0  0
 44 43  2  0  0  0  0
 45 40  2  0  0  0  0
 45 44  1  0  0  0  0
 49 44  1  0  0  0  0
 50 55  1  0  0  0  0
 51 50  2  0  0  0  0
 51 52  1  0  0  0  0
 52 53  2  0  0  0  0
 53 54  1  0  0  0  0
 53 58  1  0  0  0  0
 54 59  1  0  0  0  0
 55 28  1  0  0  0  0
 55 54  2  0  0  0  0
 56 51  1  0  0  0  0
 57 52  1  0  0  0  0
M  END
