C3Br2Cl3F3
APtclcactv10031709193D 0   0.00000     0.00000
 
 11 10  0  0  1  0  0  0  0  0999 V2000
   -0.0044   -0.3065   -0.2076 C   0  0  2  0  0  0  0  0  0  0  0  0
    0.0909   -1.8027    0.7940 Cl  0  0  0  0  0  0  0  0  0  0  0  0
   -0.0739   -0.6548   -1.5608 F   0  0  0  0  0  0  0  0  0  0  0  0
    1.2400    0.5499    0.0352 C   0  0  2  0  0  0  0  0  0  0  0  0
    2.8451   -0.4705   -0.4622 Br  0  0  0  0  0  0  0  0  0  0  0  0
    1.3297    0.9988    1.7791 Cl  0  0  0  0  0  0  0  0  0  0  0  0
    1.1661    1.7109   -0.7420 F   0  0  0  0  0  0  0  0  0  0  0  0
   -1.2535    0.4877    0.1795 C   0  0  2  0  0  0  0  0  0  0  0  0
   -2.8525   -0.6128   -0.1326 Br  0  0  0  0  0  0  0  0  0  0  0  0
   -1.3488    1.9838   -0.8221 Cl  0  0  0  0  0  0  0  0  0  0  0  0
   -1.1839    0.8360    1.5326 F   0  0  0  0  0  0  0  0  0  0  0  0
  1  2  1  0  0  0  0
  1  3  1  0  0  0  0
  1  4  1  0  0  0  0
  4  5  1  0  0  0  0
  4  6  1  0  0  0  0
  4  7  1  0  0  0  0
  1  8  1  0  0  0  0
  8  9  1  0  0  0  0
  8 10  1  0  0  0  0
  8 11  1  0  0  0  0
M  END
$$$$
