C26H14Cl2
APtclcactv05231712003D 0   0.00000     0.00000
 
 42 47  0  0  0  0  0  0  0  0999 V2000
    0.6829   -0.1059   -0.2130 C   0  0  0  0  0  0  0  0  0  0  0  0
    1.3796   -1.3189    0.2586 C   0  0  0  0  0  0  0  0  0  0  0  0
    0.9164   -2.5161    0.8043 C   0  0  0  0  0  0  0  0  0  0  0  0
   -0.7862   -2.7680    1.0305 Cl  0  0  0  0  0  0  0  0  0  0  0  0
    1.8164   -3.5017    1.1642 C   0  0  0  0  0  0  0  0  0  0  0  0
    3.1752   -3.3067    0.9857 C   0  0  0  0  0  0  0  0  0  0  0  0
    3.6502   -2.1265    0.4465 C   0  0  0  0  0  0  0  0  0  0  0  0
    2.7604   -1.1211    0.0775 C   0  0  0  0  0  0  0  0  0  0  0  0
    2.9712    0.2203   -0.5111 C   0  0  0  0  0  0  0  0  0  0  0  0
    4.1263    0.9028   -0.8838 C   0  0  0  0  0  0  0  0  0  0  0  0
    4.0355    2.1723   -1.4208 C   0  0  0  0  0  0  0  0  0  0  0  0
    2.8016    2.7764   -1.5928 C   0  0  0  0  0  0  0  0  0  0  0  0
    1.6446    2.1161   -1.2295 C   0  0  0  0  0  0  0  0  0  0  0  0
    1.7180    0.8340   -0.6880 C   0  0  0  0  0  0  0  0  0  0  0  0
   -0.6820    0.1076   -0.2151 C   0  0  0  0  0  0  0  0  0  0  0  0
   -1.3803    1.3195    0.2569 C   0  0  0  0  0  0  0  0  0  0  0  0
   -0.9187    2.5173    0.8026 C   0  0  0  0  0  0  0  0  0  0  0  0
    0.7837    2.7717    1.0282 Cl  0  0  0  0  0  0  0  0  0  0  0  0
   -1.8200    3.5016    1.1629 C   0  0  0  0  0  0  0  0  0  0  0  0
   -3.1786    3.3045    0.9849 C   0  0  0  0  0  0  0  0  0  0  0  0
   -3.6520    2.1237    0.4458 C   0  0  0  0  0  0  0  0  0  0  0  0
   -2.7608    1.1197    0.0763 C   0  0  0  0  0  0  0  0  0  0  0  0
   -2.9700   -0.2219   -0.5124 C   0  0  0  0  0  0  0  0  0  0  0  0
   -4.1241   -0.9061   -0.8846 C   0  0  0  0  0  0  0  0  0  0  0  0
   -4.0317   -2.1755   -1.4217 C   0  0  0  0  0  0  0  0  0  0  0  0
   -2.7969   -2.7778   -1.5943 C   0  0  0  0  0  0  0  0  0  0  0  0
   -1.6408   -2.1157   -1.2314 C   0  0  0  0  0  0  0  0  0  0  0  0
   -1.7154   -0.8312   -0.6958 C   0  0  0  0  0  0  0  0  0  0  0  0
    1.4577   -4.4285    1.5870 H   0  0  0  0  0  0  0  0  0  0  0  0
    3.8698   -4.0831    1.2705 H   0  0  0  0  0  0  0  0  0  0  0  0
    4.7121   -1.9836    0.3116 H   0  0  0  0  0  0  0  0  0  0  0  0
    5.0931    0.4397   -0.7526 H   0  0  0  0  0  0  0  0  0  0  0  0
    4.9341    2.6978   -1.7084 H   0  0  0  0  0  0  0  0  0  0  0  0
    2.7437    3.7696   -2.0131 H   0  0  0  0  0  0  0  0  0  0  0  0
    0.6846    2.5918   -1.3656 H   0  0  0  0  0  0  0  0  0  0  0  0
   -1.4625    4.4288    1.5858 H   0  0  0  0  0  0  0  0  0  0  0  0
   -3.8742    4.0799    1.2701 H   0  0  0  0  0  0  0  0  0  0  0  0
   -4.7138    1.9793    0.3112 H   0  0  0  0  0  0  0  0  0  0  0  0
   -5.0916   -0.4445   -0.7531 H   0  0  0  0  0  0  0  0  0  0  0  0
   -4.9297   -2.7023   -1.7090 H   0  0  0  0  0  0  0  0  0  0  0  0
   -2.7378   -3.7709   -2.0146 H   0  0  0  0  0  0  0  0  0  0  0  0
   -0.6802   -2.5899   -1.3681 H   0  0  0  0  0  0  0  0  0  0  0  0
  1  2  1  0  0  0  0
  2  3  1  0  0  0  0
  3  4  1  0  0  0  0
  3  5  2  0  0  0  0
  5  6  1  0  0  0  0
  6  7  2  0  0  0  0
  7  8  1  0  0  0  0
  2  8  2  0  0  0  0
  8  9  1  0  0  0  0
  9 10  1  0  0  0  0
 10 11  2  0  0  0  0
 11 12  1  0  0  0  0
 12 13  2  0  0  0  0
 13 14  1  0  0  0  0
  1 14  1  0  0  0  0
  9 14  2  0  0  0  0
  1 15  2  0  0  0  0
 15 16  1  0  0  0  0
 16 17  1  0  0  0  0
 17 18  1  0  0  0  0
 17 19  2  0  0  0  0
 19 20  1  0  0  0  0
 20 21  2  0  0  0  0
 21 22  1  0  0  0  0
 16 22  2  0  0  0  0
 22 23  1  0  0  0  0
 23 24  1  0  0  0  0
 24 25  2  0  0  0  0
 25 26  1  0  0  0  0
 26 27  2  0  0  0  0
 27 28  1  0  0  0  0
 15 28  1  0  0  0  0
 23 28  2  0  0  0  0
  5 29  1  0  0  0  0
  6 30  1  0  0  0  0
  7 31  1  0  0  0  0
 10 32  1  0  0  0  0
 11 33  1  0  0  0  0
 12 34  1  0  0  0  0
 13 35  1  0  0  0  0
 19 36  1  0  0  0  0
 20 37  1  0  0  0  0
 21 38  1  0  0  0  0
 24 39  1  0  0  0  0
 25 40  1  0  0  0  0
 26 41  1  0  0  0  0
 27 42  1  0  0  0  0
M  END
$$$$
