C12H25I
APtclcactv10031708463D 0   0.00000     0.00000
 
 38 37  0  0  0  0  0  0  0  0999 V2000
    3.8280    1.5250    0.1737 C   0  0  0  0  0  0  0  0  0  0  0  0
    2.5830    0.8758   -0.4341 C   0  0  0  0  0  0  0  0  0  0  0  0
    1.3379    1.3682    0.3062 C   0  0  0  0  0  0  0  0  0  0  0  0
    0.0930    0.7189   -0.3016 C   0  0  0  0  0  0  0  0  0  0  0  0
   -1.1593    1.3043    0.3542 C   0  0  0  0  0  0  0  0  0  0  0  0
   -2.4042    0.6550   -0.2537 C   0  0  0  0  0  0  0  0  0  0  0  0
   -3.6565    1.2404    0.4021 C   0  0  0  0  0  0  0  0  0  0  0  0
   -4.9014    0.5911   -0.2057 C   0  0  0  0  0  0  0  0  0  0  0  0
   -6.1537    1.1765    0.4501 C   0  0  0  0  0  0  0  0  0  0  0  0
    0.0570    0.9946   -1.8061 C   0  0  0  0  0  0  0  0  0  0  0  0
    0.1542   -1.4152    0.0388 I   0  0  0  0  0  0  0  0  0  0  0  0
    3.9996    1.0468    1.6169 C   0  0  0  0  0  0  0  0  0  0  0  0
    5.0596    1.1309   -0.6440 C   0  0  0  0  0  0  0  0  0  0  0  0
    3.7152    2.6091    0.1612 H   0  0  0  0  0  0  0  0  0  0  0  0
    2.5099    1.1459   -1.4876 H   0  0  0  0  0  0  0  0  0  0  0  0
    2.6562   -0.2078   -0.3412 H   0  0  0  0  0  0  0  0  0  0  0  0
    1.4110    1.0980    1.3597 H   0  0  0  0  0  0  0  0  0  0  0  0
    1.2647    2.4518    0.2133 H   0  0  0  0  0  0  0  0  0  0  0  0
   -1.1337    1.1079    1.4260 H   0  0  0  0  0  0  0  0  0  0  0  0
   -1.1901    2.3803    0.1826 H   0  0  0  0  0  0  0  0  0  0  0  0
   -2.4298    0.8514   -1.3255 H   0  0  0  0  0  0  0  0  0  0  0  0
   -2.3734   -0.4210   -0.0820 H   0  0  0  0  0  0  0  0  0  0  0  0
   -3.6309    1.0440    1.4740 H   0  0  0  0  0  0  0  0  0  0  0  0
   -3.6873    2.3163    0.2305 H   0  0  0  0  0  0  0  0  0  0  0  0
   -4.9270    0.7875   -1.2776 H   0  0  0  0  0  0  0  0  0  0  0  0
   -4.8706   -0.4849   -0.0341 H   0  0  0  0  0  0  0  0  0  0  0  0
   -6.1845    2.2524    0.2785 H   0  0  0  0  0  0  0  0  0  0  0  0
   -7.0406    0.7139    0.0171 H   0  0  0  0  0  0  0  0  0  0  0  0
   -6.1281    0.9801    1.5220 H   0  0  0  0  0  0  0  0  0  0  0  0
    0.9492    0.5775   -2.2733 H   0  0  0  0  0  0  0  0  0  0  0  0
   -0.8299    0.5320   -2.2392 H   0  0  0  0  0  0  0  0  0  0  0  0
    0.0262    2.0705   -1.9778 H   0  0  0  0  0  0  0  0  0  0  0  0
    3.1221    1.3276    2.1994 H   0  0  0  0  0  0  0  0  0  0  0  0
    4.1123   -0.0373    1.6294 H   0  0  0  0  0  0  0  0  0  0  0  0
    4.8865    1.5093    2.0499 H   0  0  0  0  0  0  0  0  0  0  0  0
    4.9373    1.4716   -1.6722 H   0  0  0  0  0  0  0  0  0  0  0  0
    5.9465    1.5935   -0.2110 H   0  0  0  0  0  0  0  0  0  0  0  0
    5.1723    0.0468   -0.6315 H   0  0  0  0  0  0  0  0  0  0  0  0
  1  2  1  0  0  0  0
  2  3  1  0  0  0  0
  3  4  1  0  0  0  0
  4  5  1  0  0  0  0
  5  6  1  0  0  0  0
  6  7  1  0  0  0  0
  7  8  1  0  0  0  0
  8  9  1  0  0  0  0
  4 10  1  0  0  0  0
  4 11  1  0  0  0  0
  1 12  1  0  0  0  0
  1 13  1  0  0  0  0
  1 14  1  0  0  0  0
  2 15  1  0  0  0  0
  2 16  1  0  0  0  0
  3 17  1  0  0  0  0
  3 18  1  0  0  0  0
  5 19  1  0  0  0  0
  5 20  1  0  0  0  0
  6 21  1  0  0  0  0
  6 22  1  0  0  0  0
  7 23  1  0  0  0  0
  7 24  1  0  0  0  0
  8 25  1  0  0  0  0
  8 26  1  0  0  0  0
  9 27  1  0  0  0  0
  9 28  1  0  0  0  0
  9 29  1  0  0  0  0
 10 30  1  0  0  0  0
 10 31  1  0  0  0  0
 10 32  1  0  0  0  0
 12 33  1  0  0  0  0
 12 34  1  0  0  0  0
 12 35  1  0  0  0  0
 13 36  1  0  0  0  0
 13 37  1  0  0  0  0
 13 38  1  0  0  0  0
M  END
$$$$
