C10Cl8
APtclcactv05231712013D 0   0.00000     0.00000
 
 18 19  0  0  0  0  0  0  0  0999 V2000
    0.6914   -0.0003   -0.0030 C   0  0  0  0  0  0  0  0  0  0  0  0
   -0.6914    0.0003   -0.0030 C   0  0  0  0  0  0  0  0  0  0  0  0
   -1.5787   -1.1472   -0.2943 C   0  0  0  0  0  0  0  0  0  0  0  0
   -1.0758   -2.7576   -0.7033 Cl  0  0  0  0  0  0  0  0  0  0  0  0
   -2.8478   -0.7127   -0.1833 C   0  0  0  0  0  0  0  0  0  0  0  0
   -4.2654   -1.6843   -0.4287 Cl  0  0  0  0  0  0  0  0  0  0  0  0
   -2.8472    0.7144    0.1794 C   0  0  0  0  0  0  0  0  0  0  0  0
   -4.2640    1.6864    0.4280 Cl  0  0  0  0  0  0  0  0  0  0  0  0
   -1.5778    1.1469    0.2946 C   0  0  0  0  0  0  0  0  0  0  0  0
   -1.0736    2.7562    0.7063 Cl  0  0  0  0  0  0  0  0  0  0  0  0
    1.5787    1.1472   -0.2943 C   0  0  0  0  0  0  0  0  0  0  0  0
    1.0758    2.7576   -0.7033 Cl  0  0  0  0  0  0  0  0  0  0  0  0
    2.8478    0.7127   -0.1833 C   0  0  0  0  0  0  0  0  0  0  0  0
    4.2654    1.6843   -0.4287 Cl  0  0  0  0  0  0  0  0  0  0  0  0
    2.8472   -0.7144    0.1794 C   0  0  0  0  0  0  0  0  0  0  0  0
    4.2640   -1.6864    0.4280 Cl  0  0  0  0  0  0  0  0  0  0  0  0
    1.5778   -1.1469    0.2946 C   0  0  0  0  0  0  0  0  0  0  0  0
    1.0736   -2.7562    0.7063 Cl  0  0  0  0  0  0  0  0  0  0  0  0
  1  2  2  0  0  0  0
  2  3  1  0  0  0  0
  3  4  1  0  0  0  0
  3  5  2  0  0  0  0
  5  6  1  0  0  0  0
  5  7  1  0  0  0  0
  7  8  1  0  0  0  0
  7  9  2  0  0  0  0
  2  9  1  0  0  0  0
  9 10  1  0  0  0  0
  1 11  1  0  0  0  0
 11 12  1  0  0  0  0
 11 13  2  0  0  0  0
 13 14  1  0  0  0  0
 13 15  1  0  0  0  0
 15 16  1  0  0  0  0
 15 17  2  0  0  0  0
  1 17  1  0  0  0  0
 17 18  1  0  0  0  0
M  END
$$$$
