
 OpenBabel02081817063D

 49 55  0  0  0  0  0  0  0  0999 V2000
    0.0173   -0.4845   -0.0687 Fe  0  0  0  0  0  0  0  0  0  0  0  0
    0.1338   -2.7450   -0.4803 S   0  0  0  0  0  0  0  0  0  0  0  0
    1.7743   -3.3889   -0.0220 C   0  0  0  0  0  0  0  0  0  0  0  0
   -1.6294   -0.2821   -1.5488 S   0  0  1  0  0  0  0  0  0  0  0  0
   -1.5444   -0.6464    1.6181 S   0  0  0  0  0  0  0  0  0  0  0  0
    1.5919   -0.2988   -1.7546 S   0  0  0  0  0  0  0  0  0  0  0  0
    1.6443   -0.3993    1.4407 S   0  0  1  0  0  0  0  0  0  0  0  0
   -5.4795    0.0109    0.8877 C   0  0  0  0  0  0  0  0  0  0  0  0
   -5.5306    0.1791   -0.5048 C   0  0  0  0  0  0  0  0  0  0  0  0
   -4.3509    0.0938   -1.2398 C   0  0  0  0  0  0  0  0  0  0  0  0
   -3.1345   -0.1349   -0.5868 C   0  0  0  0  0  0  0  0  0  0  0  0
   -3.0605   -0.3135    0.8094 C   0  0  0  0  0  0  0  0  0  0  0  0
   -4.2732   -0.2347    1.5329 C   0  0  0  0  0  0  0  0  0  0  0  0
    3.0808    0.0107   -0.8822 C   0  0  0  0  0  0  0  0  0  0  0  0
    3.1380   -0.0169    0.5251 C   0  0  0  0  0  0  0  0  0  0  0  0
    4.2854    0.2728   -1.5731 C   0  0  0  0  0  0  0  0  0  0  0  0
    5.4725    0.4950   -0.8853 C   0  0  0  0  0  0  0  0  0  0  0  0
    5.5094    0.4548    0.5167 C   0  0  0  0  0  0  0  0  0  0  0  0
    4.3370    0.1857    1.2178 C   0  0  0  0  0  0  0  0  0  0  0  0
   -1.2966    1.4692   -2.0086 C   0  0  0  0  0  0  0  0  0  0  0  0
    1.2079    1.2417    2.1496 C   0  0  0  0  0  0  0  0  0  0  0  0
    0.5606    2.1072    1.1130 C   0  0  0  0  0  0  0  0  0  0  0  0
   -0.7035    2.2117   -0.8514 C   0  0  0  0  0  0  0  0  0  0  0  0
   -0.0486    1.4681    0.0793 N   0  0  0  0  0  0  0  0  0  0  0  0
   -0.7845    3.5983   -0.7588 C   0  0  0  0  0  0  0  0  0  0  0  0
    0.5501    3.4942    1.2274 C   0  0  0  0  0  0  0  0  0  0  0  0
   -0.1403    4.2549    0.2868 C   0  0  0  0  0  0  0  0  0  0  0  0
   -6.3938    0.0688    1.4732 H   0  0  0  0  0  0  0  0  0  0  0  0
   -6.4754    0.3660   -1.0062 H   0  0  0  0  0  0  0  0  0  0  0  0
   -4.3677    0.2066   -2.3212 H   0  0  0  0  0  0  0  0  0  0  0  0
   -4.2508   -0.3665    2.6118 H   0  0  0  0  0  0  0  0  0  0  0  0
    4.2727    0.3011   -2.6598 H   0  0  0  0  0  0  0  0  0  0  0  0
    6.3822    0.6975   -1.4450 H   0  0  0  0  0  0  0  0  0  0  0  0
    6.4394    0.6235    1.0512 H   0  0  0  0  0  0  0  0  0  0  0  0
    4.3451    0.1354    2.3040 H   0  0  0  0  0  0  0  0  0  0  0  0
   -2.2059    1.9392   -2.3890 H   0  0  0  0  0  0  0  0  0  0  0  0
   -0.5683    1.3907   -2.8228 H   0  0  0  0  0  0  0  0  0  0  0  0
    2.0910    1.7060    2.5934 H   0  0  0  0  0  0  0  0  0  0  0  0
    0.4932    1.0018    2.9438 H   0  0  0  0  0  0  0  0  0  0  0  0
   -1.3331    4.1506   -1.5148 H   0  0  0  0  0  0  0  0  0  0  0  0
    1.0664    3.9633    2.0585 H   0  0  0  0  0  0  0  0  0  0  0  0
   -0.1749    5.3367    0.3668 H   0  0  0  0  0  0  0  0  0  0  0  0
    1.9373   -3.2746    1.0522 H   0  0  0  0  0  0  0  0  0  0  0  0
   -0.8677   -3.7576    0.6549 C   0  0  0  0  0  0  0  0  0  0  0  0
    2.5053   -2.8047   -0.5837 H   0  0  0  0  0  0  0  0  0  0  0  0
    1.8321   -4.4418   -0.3071 H   0  0  0  0  0  0  0  0  0  0  0  0
   -0.5837   -3.5599    1.6902 H   0  0  0  0  0  0  0  0  0  0  0  0
   -0.7190   -4.8098    0.3989 H   0  0  0  0  0  0  0  0  0  0  0  0
   -1.9095   -3.4721    0.5034 H   0  0  0  0  0  0  0  0  0  0  0  0
  1 24  1  0  0  0  0
  1  5  1  0  0  0  0
  2  1  1  0  0  0  0
  2  3  1  0  0  0  0
  2 44  1  0  0  0  0
  3 43  1  0  0  0  0
  4 20  1  1  0  0  0
  4 11  1  0  0  0  0
  4  1  1  0  0  0  0
  6 14  1  0  0  0  0
  6  1  1  0  0  0  0
  7  1  1  6  0  0  0
  7 21  1  0  0  0  0
  8 28  1  0  0  0  0
  8 13  1  0  0  0  0
  9  8  2  0  0  0  0
 10 11  2  0  0  0  0
 10  9  1  0  0  0  0
 11 12  1  0  0  0  0
 12 13  2  0  0  0  0
 12  5  1  0  0  0  0
 13 31  1  0  0  0  0
 14 15  2  0  0  0  0
 15 19  1  0  0  0  0
 15  7  1  0  0  0  0
 16 17  2  0  0  0  0
 16 14  1  0  0  0  0
 17 18  1  0  0  0  0
 18 34  1  0  0  0  0
 18 19  2  0  0  0  0
 19 35  1  0  0  0  0
 20 23  1  0  0  0  0
 21 38  1  0  0  0  0
 21 39  1  0  0  0  0
 22 26  2  0  0  0  0
 22 21  1  0  0  0  0
 23 25  2  0  0  0  0
 23 24  1  0  0  0  0
 24 22  1  0  0  0  0
 25 27  1  0  0  0  0
 26 41  1  0  0  0  0
 27 42  1  0  0  0  0
 27 26  1  0  0  0  0
 29  9  1  0  0  0  0
 30 10  1  0  0  0  0
 32 16  1  0  0  0  0
 33 17  1  0  0  0  0
 36 20  1  0  0  0  0
 37 20  1  0  0  0  0
 40 25  1  0  0  0  0
 44 47  1  0  0  0  0
 45  3  1  0  0  0  0
 46  3  1  0  0  0  0
 48 44  1  0  0  0  0
 49 44  1  0  0  0  0
M  END
