
 OpenBabel02081817063D

 44 50  0  0  0  0  0  0  0  0999 V2000
   -0.0017   -0.7073    0.0165 Fe  0  0  0  0  0  0  0  0  0  0  0  0
    0.1373   -2.8982   -0.0380 P   0  0  0  0  0  0  0  0  0  0  0  0
    1.4049   -3.4880    0.1611 H   0  0  0  0  0  0  0  0  0  0  0  0
   -1.6347   -0.6071   -1.4833 S   0  0  1  0  0  0  0  0  0  0  0  0
   -1.5737   -0.7157    1.7058 S   0  0  0  0  0  0  0  0  0  0  0  0
    1.5880   -0.7494   -1.6645 S   0  0  0  0  0  0  0  0  0  0  0  0
    1.6099   -0.4893    1.5263 S   0  0  1  0  0  0  0  0  0  0  0  0
   -5.4826    0.0031    0.8983 C   0  0  0  0  0  0  0  0  0  0  0  0
   -5.5225    0.0587   -0.5032 C   0  0  0  0  0  0  0  0  0  0  0  0
   -4.3438   -0.1231   -1.2218 C   0  0  0  0  0  0  0  0  0  0  0  0
   -3.1374   -0.3338   -0.5445 C   0  0  0  0  0  0  0  0  0  0  0  0
   -3.0757   -0.4011    0.8616 C   0  0  0  0  0  0  0  0  0  0  0  0
   -4.2872   -0.2270    1.5691 C   0  0  0  0  0  0  0  0  0  0  0  0
    3.0810   -0.4058   -0.8096 C   0  0  0  0  0  0  0  0  0  0  0  0
    3.1230   -0.2646    0.5913 C   0  0  0  0  0  0  0  0  0  0  0  0
    4.3012   -0.2722   -1.5096 C   0  0  0  0  0  0  0  0  0  0  0  0
    5.4881   -0.0062   -0.8365 C   0  0  0  0  0  0  0  0  0  0  0  0
    5.5090    0.1245    0.5602 C   0  0  0  0  0  0  0  0  0  0  0  0
    4.3211   -0.0185    1.2718 C   0  0  0  0  0  0  0  0  0  0  0  0
   -1.2666    1.0836   -2.1154 C   0  0  0  0  0  0  0  0  0  0  0  0
    1.2149    1.2298    2.0549 C   0  0  0  0  0  0  0  0  0  0  0  0
    0.5856    2.0009    0.9355 C   0  0  0  0  0  0  0  0  0  0  0  0
   -0.6696    1.9315   -1.0352 C   0  0  0  0  0  0  0  0  0  0  0  0
   -0.0341    1.2761   -0.0304 N   0  0  0  0  0  0  0  0  0  0  0  0
   -0.7239    3.3219   -1.0848 C   0  0  0  0  0  0  0  0  0  0  0  0
    0.6000    3.3929    0.9122 C   0  0  0  0  0  0  0  0  0  0  0  0
   -0.0728    4.0666   -0.1045 C   0  0  0  0  0  0  0  0  0  0  0  0
   -6.3965    0.1379    1.4714 H   0  0  0  0  0  0  0  0  0  0  0  0
   -6.4587    0.2344   -1.0243 H   0  0  0  0  0  0  0  0  0  0  0  0
   -4.3535   -0.0982   -2.3088 H   0  0  0  0  0  0  0  0  0  0  0  0
   -4.2730   -0.2710    2.6552 H   0  0  0  0  0  0  0  0  0  0  0  0
    4.3010   -0.3745   -2.5918 H   0  0  0  0  0  0  0  0  0  0  0  0
    6.4095    0.0968   -1.4039 H   0  0  0  0  0  0  0  0  0  0  0  0
    6.4384    0.3273    1.0838 H   0  0  0  0  0  0  0  0  0  0  0  0
    4.3166    0.0639    2.3560 H   0  0  0  0  0  0  0  0  0  0  0  0
   -2.1644    1.5257   -2.5522 H   0  0  0  0  0  0  0  0  0  0  0  0
   -0.5326    0.9092   -2.9095 H   0  0  0  0  0  0  0  0  0  0  0  0
    2.1107    1.7139    2.4494 H   0  0  0  0  0  0  0  0  0  0  0  0
    0.4972    1.0921    2.8707 H   0  0  0  0  0  0  0  0  0  0  0  0
   -1.2565    3.8067   -1.8962 H   0  0  0  0  0  0  0  0  0  0  0  0
    1.1201    3.9348    1.6952 H   0  0  0  0  0  0  0  0  0  0  0  0
   -0.0877    5.1515   -0.1333 H   0  0  0  0  0  0  0  0  0  0  0  0
   -0.1954   -3.5504   -1.2458 H   0  0  0  0  0  0  0  0  0  0  0  0
   -0.6092   -3.7083    0.8497 H   0  0  0  0  0  0  0  0  0  0  0  0
  1  5  1  0  0  0  0
  2  1  1  0  0  0  0
  2  3  1  0  0  0  0
  2 44  1  0  0  0  0
  4 20  1  6  0  0  0
  4 11  1  0  0  0  0
  4  1  1  0  0  0  0
  6 14  1  0  0  0  0
  6  1  1  0  0  0  0
  7  1  1  6  0  0  0
  7 21  1  0  0  0  0
  8 28  1  0  0  0  0
  8 13  1  0  0  0  0
  9  8  2  0  0  0  0
 10 11  2  0  0  0  0
 10  9  1  0  0  0  0
 11 12  1  0  0  0  0
 12 13  2  0  0  0  0
 12  5  1  0  0  0  0
 13 31  1  0  0  0  0
 14 15  2  0  0  0  0
 15 19  1  0  0  0  0
 15  7  1  0  0  0  0
 16 17  2  0  0  0  0
 16 14  1  0  0  0  0
 17 18  1  0  0  0  0
 18 34  1  0  0  0  0
 18 19  2  0  0  0  0
 19 35  1  0  0  0  0
 20 23  1  0  0  0  0
 21 38  1  0  0  0  0
 21 39  1  0  0  0  0
 22 21  1  0  0  0  0
 23 24  1  0  0  0  0
 24  1  1  0  0  0  0
 24 22  1  0  0  0  0
 25 23  2  0  0  0  0
 25 27  1  0  0  0  0
 26 22  2  0  0  0  0
 26 41  1  0  0  0  0
 27 26  1  0  0  0  0
 29  9  1  0  0  0  0
 30 10  1  0  0  0  0
 32 16  1  0  0  0  0
 33 17  1  0  0  0  0
 36 20  1  0  0  0  0
 37 20  1  0  0  0  0
 40 25  1  0  0  0  0
 42 27  1  0  0  0  0
 43  2  1  0  0  0  0
M  END
