C11H20Cl4O
APtclcactv11211707033D 0   0.00000     0.00000
 
 36 35  0  0  0  0  0  0  0  0999 V2000
    0.0205    0.0729   -0.1691 C   0  0  1  0  0  0  0  0  0  0  0  0
   -0.8944    0.8191    0.8040 C   0  0  2  0  0  0  0  0  0  0  0  0
   -0.2891    1.4113    1.4903 H   0  0  0  0  0  0  0  0  0  0  0  0
   -1.7258   -0.1903    1.5982 C   0  0  1  0  0  0  0  0  0  0  0  0
   -2.6901   -1.2028    0.4598 Cl  0  0  0  0  0  0  0  0  0  0  0  0
   -2.3989    0.3421    2.2702 H   0  0  0  0  0  0  0  0  0  0  0  0
   -0.7943   -1.0879    2.4151 C   0  0  0  0  0  0  0  0  0  0  0  0
   -1.8277    1.7435    0.0195 C   0  0  2  0  0  0  0  0  0  0  0  0
   -2.8289    0.7640   -1.1158 Cl  0  0  0  0  0  0  0  0  0  0  0  0
   -2.4795    2.2752    0.7127 H   0  0  0  0  0  0  0  0  0  0  0  0
   -0.9962    2.7529   -0.7748 C   0  0  0  0  0  0  0  0  0  0  0  0
    1.2900   -0.3690    0.5616 C   0  0  1  0  0  0  0  0  0  0  0  0
    1.0241   -1.0391    1.3791 H   0  0  0  0  0  0  0  0  0  0  0  0
    2.2134   -1.0987   -0.4161 C   0  0  1  0  0  0  0  0  0  0  0  0
    3.1652   -1.3096    0.0716 H   0  0  0  0  0  0  0  0  0  0  0  0
    1.4441   -2.6470   -0.9277 Cl  0  0  0  0  0  0  0  0  0  0  0  0
    2.4537   -0.2184   -1.6442 C   0  0  0  0  0  0  0  0  0  0  0  0
    2.0094    0.8593    1.1224 C   0  0  2  0  0  0  0  0  0  0  0  0
    1.4166    1.2908    1.9289 H   0  0  0  0  0  0  0  0  0  0  0  0
    2.2228    2.0807   -0.1866 Cl  0  0  0  0  0  0  0  0  0  0  0  0
    3.3800    0.4455    1.6621 C   0  0  0  0  0  0  0  0  0  0  0  0
    0.2875    0.7322   -0.9950 H   0  0  0  0  0  0  0  0  0  0  0  0
   -0.6607   -1.0758   -0.6777 O   0  0  0  0  0  0  0  0  0  0  0  0
   -0.7443   -1.7979   -0.0399 H   0  0  0  0  0  0  0  0  0  0  0  0
   -0.0252   -0.4778    2.8889 H   0  0  0  0  0  0  0  0  0  0  0  0
   -1.3697   -1.6068    3.1817 H   0  0  0  0  0  0  0  0  0  0  0  0
   -0.3242   -1.8185    1.7568 H   0  0  0  0  0  0  0  0  0  0  0  0
   -0.3444    2.2213   -1.4680 H   0  0  0  0  0  0  0  0  0  0  0  0
   -1.6611    3.4115   -1.3337 H   0  0  0  0  0  0  0  0  0  0  0  0
   -0.3909    3.3451   -0.0884 H   0  0  0  0  0  0  0  0  0  0  0  0
    3.2194    0.5230   -1.4156 H   0  0  0  0  0  0  0  0  0  0  0  0
    2.7858   -0.8388   -2.4766 H   0  0  0  0  0  0  0  0  0  0  0  0
    1.5273    0.2878   -1.9153 H   0  0  0  0  0  0  0  0  0  0  0  0
    4.0091    0.1104    0.8375 H   0  0  0  0  0  0  0  0  0  0  0  0
    3.8491    1.2975    2.1541 H   0  0  0  0  0  0  0  0  0  0  0  0
    3.2581   -0.3663    2.3792 H   0  0  0  0  0  0  0  0  0  0  0  0
  1  2  1  0  0  0  0
  2  3  1  0  0  0  0
  2  4  1  0  0  0  0
  4  5  1  0  0  0  0
  4  6  1  0  0  0  0
  4  7  1  0  0  0  0
  2  8  1  0  0  0  0
  8  9  1  0  0  0  0
  8 10  1  0  0  0  0
  8 11  1  0  0  0  0
  1 12  1  0  0  0  0
 12 13  1  0  0  0  0
 12 14  1  0  0  0  0
 14 15  1  0  0  0  0
 14 16  1  0  0  0  0
 14 17  1  0  0  0  0
 12 18  1  0  0  0  0
 18 19  1  0  0  0  0
 18 20  1  0  0  0  0
 18 21  1  0  0  0  0
  1 22  1  0  0  0  0
  1 23  1  0  0  0  0
 23 24  1  0  0  0  0
  7 25  1  0  0  0  0
  7 26  1  0  0  0  0
  7 27  1  0  0  0  0
 11 28  1  0  0  0  0
 11 29  1  0  0  0  0
 11 30  1  0  0  0  0
 17 31  1  0  0  0  0
 17 32  1  0  0  0  0
 17 33  1  0  0  0  0
 21 34  1  0  0  0  0
 21 35  1  0  0  0  0
 21 36  1  0  0  0  0
M  END
$$$$
