C7H7Cl5O4
APtclcactv11101705543D 0   0.00000     0.00000
 
 23 22  0  0  1  0  0  0  0  0999 V2000
   -3.1081   -1.2871    0.5411 C   0  0  0  0  0  0  0  0  0  0  0  0
   -3.2910   -2.5371    0.9946 O   0  0  0  0  0  0  0  0  0  0  0  0
   -4.1429   -2.7341    1.4075 H   0  0  0  0  0  0  0  0  0  0  0  0
   -3.9879   -0.4672    0.6582 O   0  0  0  0  0  0  0  0  0  0  0  0
   -1.8033   -0.9045   -0.1086 C   0  0  1  0  0  0  0  0  0  0  0  0
   -1.0516   -1.6625    0.1119 H   0  0  0  0  0  0  0  0  0  0  0  0
   -2.0323   -0.7867   -1.8932 Cl  0  0  0  0  0  0  0  0  0  0  0  0
   -1.3393    0.4477    0.4364 C   0  0  2  0  0  0  0  0  0  0  0  0
   -1.2606    0.3941    1.5222 H   0  0  0  0  0  0  0  0  0  0  0  0
   -2.5331    1.7203   -0.0176 Cl  0  0  0  0  0  0  0  0  0  0  0  0
    0.0273    0.7952   -0.1574 C   0  0  1  0  0  0  0  0  0  0  0  0
   -0.0302    0.7619   -1.2454 H   0  0  0  0  0  0  0  0  0  0  0  0
    0.5076    2.4515    0.3687 Cl  0  0  0  0  0  0  0  0  0  0  0  0
    1.0670   -0.2162    0.3294 C   0  0  2  0  0  0  0  0  0  0  0  0
    0.7643   -1.2202    0.0320 H   0  0  0  0  0  0  0  0  0  0  0  0
    1.1906   -0.1333    2.1263 Cl  0  0  0  0  0  0  0  0  0  0  0  0
    2.4267    0.1114   -0.2910 C   0  0  2  0  0  0  0  0  0  0  0  0
    2.3030    0.0285   -2.0878 Cl  0  0  0  0  0  0  0  0  0  0  0  0
    2.7293    1.1154    0.0065 H   0  0  0  0  0  0  0  0  0  0  0  0
    3.4507   -0.8848    0.1886 C   0  0  0  0  0  0  0  0  0  0  0  0
    4.6584   -0.4629    0.5952 O   0  0  0  0  0  0  0  0  0  0  0  0
    5.2819   -1.1389    0.8941 H   0  0  0  0  0  0  0  0  0  0  0  0
    3.1847   -2.0632    0.2071 O   0  0  0  0  0  0  0  0  0  0  0  0
  1  2  1  0  0  0  0
  2  3  1  0  0  0  0
  1  4  2  0  0  0  0
  1  5  1  0  0  0  0
  5  6  1  0  0  0  0
  5  7  1  0  0  0  0
  5  8  1  0  0  0  0
  8  9  1  0  0  0  0
  8 10  1  0  0  0  0
  8 11  1  0  0  0  0
 11 12  1  0  0  0  0
 11 13  1  0  0  0  0
 11 14  1  0  0  0  0
 14 15  1  0  0  0  0
 14 16  1  0  0  0  0
 14 17  1  0  0  0  0
 17 18  1  0  0  0  0
 17 19  1  0  0  0  0
 17 20  1  0  0  0  0
 20 21  1  0  0  0  0
 21 22  1  0  0  0  0
 20 23  2  0  0  0  0
M  END
$$$$
