C22H34O
APtclcactv11101704203D 0   0.00000     0.00000
 
 57 56  0  0  0  0  0  0  0  0999 V2000
    0.0983   -0.6999   -0.3304 C   0  0  2  0  0  0  0  0  0  0  0  0
   -1.0934   -1.3123    0.3594 C   0  0  0  0  0  0  0  0  0  0  0  0
   -0.9656   -2.1800    0.9896 H   0  0  0  0  0  0  0  0  0  0  0  0
   -2.2844   -0.7921    0.1947 C   0  0  0  0  0  0  0  0  0  0  0  0
   -3.4480   -1.3020    1.0052 C   0  0  0  0  0  0  0  0  0  0  0  0
   -3.6312   -0.4331    2.2228 C   0  0  0  0  0  0  0  0  0  0  0  0
   -2.8063   -0.2737    2.9015 H   0  0  0  0  0  0  0  0  0  0  0  0
   -4.7909    0.1289    2.4580 C   0  0  0  0  0  0  0  0  0  0  0  0
   -4.9222    0.7516    3.3306 H   0  0  0  0  0  0  0  0  0  0  0  0
   -5.9419   -0.0935    1.5109 C   0  0  0  0  0  0  0  0  0  0  0  0
   -2.4908    0.3162   -0.8054 C   0  0  0  0  0  0  0  0  0  0  0  0
   -3.1975   -0.2283   -2.0199 C   0  0  0  0  0  0  0  0  0  0  0  0
   -2.7853   -1.0737   -2.5509 H   0  0  0  0  0  0  0  0  0  0  0  0
   -4.3119    0.3237   -2.4317 C   0  0  0  0  0  0  0  0  0  0  0  0
   -4.8184   -0.0666   -3.3021 H   0  0  0  0  0  0  0  0  0  0  0  0
   -4.8871    1.5032   -1.6908 C   0  0  0  0  0  0  0  0  0  0  0  0
    1.3650   -1.2623    0.2612 C   0  0  0  0  0  0  0  0  0  0  0  0
    1.3412   -2.2003    0.7961 H   0  0  0  0  0  0  0  0  0  0  0  0
    2.4951   -0.6136    0.1267 C   0  0  0  0  0  0  0  0  0  0  0  0
    3.7341   -1.1045    0.8303 C   0  0  0  0  0  0  0  0  0  0  0  0
    4.5349   -1.9702   -0.1079 C   0  0  0  0  0  0  0  0  0  0  0  0
    4.0721   -2.8215   -0.5847 H   0  0  0  0  0  0  0  0  0  0  0  0
    5.7924   -1.6900   -0.3452 C   0  0  0  0  0  0  0  0  0  0  0  0
    6.3663   -2.3104   -1.0176 H   0  0  0  0  0  0  0  0  0  0  0  0
    6.4382   -0.5020    0.3202 C   0  0  0  0  0  0  0  0  0  0  0  0
    2.5562    0.6236   -0.7315 C   0  0  0  0  0  0  0  0  0  0  0  0
    2.4432    1.8468    0.1416 C   0  0  0  0  0  0  0  0  0  0  0  0
    1.5949    1.9640    0.7996 H   0  0  0  0  0  0  0  0  0  0  0  0
    3.3740    2.7678    0.1023 C   0  0  0  0  0  0  0  0  0  0  0  0
    4.2223    2.6505   -0.5557 H   0  0  0  0  0  0  0  0  0  0  0  0
    3.2610    3.9909    0.9754 C   0  0  0  0  0  0  0  0  0  0  0  0
    0.0767    0.7175   -0.1501 O   0  0  0  0  0  0  0  0  0  0  0  0
    0.1165    0.9969    0.7748 H   0  0  0  0  0  0  0  0  0  0  0  0
    0.0452   -1.0247   -1.8246 C   0  0  0  0  0  0  0  0  0  0  0  0
   -4.3534   -1.2734    0.3989 H   0  0  0  0  0  0  0  0  0  0  0  0
   -3.2518   -2.3278    1.3171 H   0  0  0  0  0  0  0  0  0  0  0  0
   -6.8167    0.4495    1.8685 H   0  0  0  0  0  0  0  0  0  0  0  0
   -5.6708    0.2672    0.5187 H   0  0  0  0  0  0  0  0  0  0  0  0
   -6.1705   -1.1580    1.4606 H   0  0  0  0  0  0  0  0  0  0  0  0
   -3.0957    1.1035   -0.3556 H   0  0  0  0  0  0  0  0  0  0  0  0
   -1.5240    0.7243   -1.1002 H   0  0  0  0  0  0  0  0  0  0  0  0
   -4.1686    2.3228   -1.6988 H   0  0  0  0  0  0  0  0  0  0  0  0
   -5.8088    1.8232   -2.1769 H   0  0  0  0  0  0  0  0  0  0  0  0
   -5.1000    1.2167   -0.6609 H   0  0  0  0  0  0  0  0  0  0  0  0
    4.3372   -0.2515    1.1417 H   0  0  0  0  0  0  0  0  0  0  0  0
    3.4480   -1.6863    1.7065 H   0  0  0  0  0  0  0  0  0  0  0  0
    5.9078    0.4067    0.0355 H   0  0  0  0  0  0  0  0  0  0  0  0
    6.3953   -0.6239    1.4025 H   0  0  0  0  0  0  0  0  0  0  0  0
    7.4788   -0.4295    0.0037 H   0  0  0  0  0  0  0  0  0  0  0  0
    3.5045    0.6469   -1.2685 H   0  0  0  0  0  0  0  0  0  0  0  0
    1.7338    0.6106   -1.4468 H   0  0  0  0  0  0  0  0  0  0  0  0
    2.3464    4.5301    0.7288 H   0  0  0  0  0  0  0  0  0  0  0  0
    3.2335    3.6887    2.0223 H   0  0  0  0  0  0  0  0  0  0  0  0
    4.1213    4.6385    0.8066 H   0  0  0  0  0  0  0  0  0  0  0  0
   -0.8710   -0.6179   -2.2526 H   0  0  0  0  0  0  0  0  0  0  0  0
    0.9072   -0.5818   -2.3236 H   0  0  0  0  0  0  0  0  0  0  0  0
    0.0617   -2.1059   -1.9622 H   0  0  0  0  0  0  0  0  0  0  0  0
  1  2  1  0  0  0  0
  2  3  1  0  0  0  0
  2  4  2  0  0  0  0
  4  5  1  0  0  0  0
  5  6  1  0  0  0  0
  6  7  1  0  0  0  0
  6  8  2  0  0  0  0
  8  9  1  0  0  0  0
  8 10  1  0  0  0  0
  4 11  1  0  0  0  0
 11 12  1  0  0  0  0
 12 13  1  0  0  0  0
 12 14  2  0  0  0  0
 14 15  1  0  0  0  0
 14 16  1  0  0  0  0
  1 17  1  0  0  0  0
 17 18  1  0  0  0  0
 17 19  2  0  0  0  0
 19 20  1  0  0  0  0
 20 21  1  0  0  0  0
 21 22  1  0  0  0  0
 21 23  2  0  0  0  0
 23 24  1  0  0  0  0
 23 25  1  0  0  0  0
 19 26  1  0  0  0  0
 26 27  1  0  0  0  0
 27 28  1  0  0  0  0
 27 29  2  0  0  0  0
 29 30  1  0  0  0  0
 29 31  1  0  0  0  0
  1 32  1  0  0  0  0
 32 33  1  0  0  0  0
  1 34  1  0  0  0  0
  5 35  1  0  0  0  0
  5 36  1  0  0  0  0
 10 37  1  0  0  0  0
 10 38  1  0  0  0  0
 10 39  1  0  0  0  0
 11 40  1  0  0  0  0
 11 41  1  0  0  0  0
 16 42  1  0  0  0  0
 16 43  1  0  0  0  0
 16 44  1  0  0  0  0
 20 45  1  0  0  0  0
 20 46  1  0  0  0  0
 25 47  1  0  0  0  0
 25 48  1  0  0  0  0
 25 49  1  0  0  0  0
 26 50  1  0  0  0  0
 26 51  1  0  0  0  0
 31 52  1  0  0  0  0
 31 53  1  0  0  0  0
 31 54  1  0  0  0  0
 34 55  1  0  0  0  0
 34 56  1  0  0  0  0
 34 57  1  0  0  0  0
M  END
$$$$
