C9H16O
APtclcactv10261711213D 0   0.00000     0.00000
 
 26 25  0  0  1  0  0  0  0  0999 V2000
    0.1270   -0.2087   -0.0956 C   0  0  1  0  0  0  0  0  0  0  0  0
   -0.9477    0.6781    0.5365 C   0  0  0  0  0  0  0  0  0  0  0  0
   -2.2169    0.5818   -0.2704 C   0  0  0  0  0  0  0  0  0  0  0  0
   -3.3394    0.2410    0.3126 C   0  0  0  0  0  0  0  0  0  0  0  0
   -4.6085    0.1447   -0.4943 C   0  0  0  0  0  0  0  0  0  0  0  0
    1.4498   -0.0159    0.6486 C   0  0  0  0  0  0  0  0  0  0  0  0
    2.5362   -0.7940   -0.0481 C   0  0  0  0  0  0  0  0  0  0  0  0
    3.6294   -0.1867   -0.4384 C   0  0  0  0  0  0  0  0  0  0  0  0
    3.8006    1.2899   -0.1907 C   0  0  0  0  0  0  0  0  0  0  0  0
    0.2556    0.0665   -1.1424 H   0  0  0  0  0  0  0  0  0  0  0  0
   -0.2733   -1.5777   -0.0086 O   0  0  0  0  0  0  0  0  0  0  0  0
   -0.4065   -1.8918    0.8962 H   0  0  0  0  0  0  0  0  0  0  0  0
   -1.1396    0.3453    1.5566 H   0  0  0  0  0  0  0  0  0  0  0  0
   -0.6036    1.7122    0.5504 H   0  0  0  0  0  0  0  0  0  0  0  0
   -2.2010    0.7937   -1.3293 H   0  0  0  0  0  0  0  0  0  0  0  0
   -3.3553    0.0290    1.3715 H   0  0  0  0  0  0  0  0  0  0  0  0
   -4.4836   -0.5997   -1.2806 H   0  0  0  0  0  0  0  0  0  0  0  0
   -5.4317   -0.1493    0.1569 H   0  0  0  0  0  0  0  0  0  0  0  0
   -4.8283    1.1135   -0.9428 H   0  0  0  0  0  0  0  0  0  0  0  0
    1.7102    1.0425    0.6585 H   0  0  0  0  0  0  0  0  0  0  0  0
    1.3461   -0.3742    1.6728 H   0  0  0  0  0  0  0  0  0  0  0  0
    2.4135   -1.8522   -0.2257 H   0  0  0  0  0  0  0  0  0  0  0  0
    4.4080   -0.7443   -0.9378 H   0  0  0  0  0  0  0  0  0  0  0  0
    3.7588    1.4858    0.8808 H   0  0  0  0  0  0  0  0  0  0  0  0
    4.7647    1.6146   -0.5820 H   0  0  0  0  0  0  0  0  0  0  0  0
    3.0021    1.8373   -0.6916 H   0  0  0  0  0  0  0  0  0  0  0  0
  1  2  1  0  0  0  0
  2  3  1  0  0  0  0
  3  4  2  0  0  0  0
  4  5  1  0  0  0  0
  1  6  1  0  0  0  0
  6  7  1  0  0  0  0
  7  8  2  0  0  0  0
  8  9  1  0  0  0  0
  1 10  1  0  0  0  0
  1 11  1  0  0  0  0
 11 12  1  0  0  0  0
  2 13  1  0  0  0  0
  2 14  1  0  0  0  0
  3 15  1  0  0  0  0
  4 16  1  0  0  0  0
  5 17  1  0  0  0  0
  5 18  1  0  0  0  0
  5 19  1  0  0  0  0
  6 20  1  0  0  0  0
  6 21  1  0  0  0  0
  7 22  1  0  0  0  0
  8 23  1  0  0  0  0
  9 24  1  0  0  0  0
  9 25  1  0  0  0  0
  9 26  1  0  0  0  0
M  END
$$$$
