
 OpenBabel11131717193D

 84 83  0  0  1  0  0  0  0  0999 V2000
   -0.2086   -0.5611   -0.2177 C   0  0  1  0  0  0  0  0  0  0  0  0
    1.4739   -0.5191   -0.0641 C   0  0  1  0  0  0  0  0  0  0  0  0
    1.9985   -0.3329    1.4884 C   0  0  2  0  0  0  0  0  0  0  0  0
    3.0892   -0.5112    1.4487 H   0  0  0  0  0  0  0  0  0  0  0  0
    1.4904   -1.4191    2.4700 C   0  0  0  0  0  0  0  0  0  0  0  0
    1.8655    1.0617    2.2343 C   0  0  1  0  0  0  0  0  0  0  0  0
    1.2100    1.6760    1.6626 H   0  0  0  0  0  0  0  0  0  0  0  0
    1.1221    1.0520    3.8872 Cl  0  0  0  0  0  0  0  0  0  0  0  0
    3.1855    1.8162    2.4346 C   0  0  0  0  0  0  0  0  0  0  0  0
    2.0217   -2.0082   -0.6032 C   0  0  2  0  0  0  0  0  0  0  0  0
    1.9318   -1.9012   -1.7057 H   0  0  0  0  0  0  0  0  0  0  0  0
    1.1698   -3.3076   -0.3462 C   0  0  0  0  0  0  0  0  0  0  0  0
    3.5413   -2.4071   -0.3305 C   0  0  1  0  0  0  0  0  0  0  0  0
    4.1907   -1.5403   -0.3161 H   0  0  0  0  0  0  0  0  0  0  0  0
    3.8863   -3.2038    1.2370 Cl  0  0  0  0  0  0  0  0  0  0  0  0
    4.1226   -3.3160   -1.4275 C   0  0  0  0  0  0  0  0  0  0  0  0
    2.0960    0.5741   -1.1342 C   0  0  1  0  0  0  0  0  0  0  0  0
    1.6599    2.0075   -0.8838 C   0  0  0  0  0  0  0  0  0  0  0  0
    1.6093    0.3405   -2.0928 H   0  0  0  0  0  0  0  0  0  0  0  0
    3.6044    0.5400   -1.6132 C   0  0  2  0  0  0  0  0  0  0  0  0
    4.8347    0.9119   -0.3748 Cl  0  0  0  0  0  0  0  0  0  0  0  0
    3.8063   -0.4547   -2.0444 H   0  0  0  0  0  0  0  0  0  0  0  0
    3.9043    1.4669   -2.8053 C   0  0  0  0  0  0  0  0  0  0  0  0
   -1.6695    0.2067    0.1334 C   0  0  1  0  0  0  0  0  0  0  0  0
   -2.3842    1.0133   -1.1549 C   0  0  2  0  0  0  0  0  0  0  0  0
   -2.5996    0.1171   -2.4250 C   0  0  0  0  0  0  0  0  0  0  0  0
   -3.3995    1.1896   -0.7504 H   0  0  0  0  0  0  0  0  0  0  0  0
   -2.0393    2.4072   -1.8896 C   0  0  2  0  0  0  0  0  0  0  0  0
   -2.8949    2.5477   -2.5915 H   0  0  0  0  0  0  0  0  0  0  0  0
   -0.6304    2.3947   -3.0044 Cl  0  0  0  0  0  0  0  0  0  0  0  0
   -2.0914    3.7694   -1.2075 C   0  0  0  0  0  0  0  0  0  0  0  0
   -2.7356   -1.0313    0.5942 C   0  0  2  0  0  0  0  0  0  0  0  0
   -2.2255   -1.8655    1.8299 C   0  0  0  0  0  0  0  0  0  0  0  0
   -3.6204   -0.4942    0.9465 H   0  0  0  0  0  0  0  0  0  0  0  0
   -3.5320   -2.1124   -0.2689 C   0  0  2  0  0  0  0  0  0  0  0  0
   -3.9862   -2.8354    0.4452 H   0  0  0  0  0  0  0  0  0  0  0  0
   -2.5557   -3.2248   -1.2758 Cl  0  0  0  0  0  0  0  0  0  0  0  0
   -4.8544   -1.6447   -0.9332 C   0  0  0  0  0  0  0  0  0  0  0  0
   -1.6023    1.1322    1.5189 C   0  0  1  0  0  0  0  0  0  0  0  0
   -0.8659    0.5922    2.1295 H   0  0  0  0  0  0  0  0  0  0  0  0
   -1.0855    2.5832    1.4430 C   0  0  0  0  0  0  0  0  0  0  0  0
   -2.9035    1.2561    2.4564 C   0  0  2  0  0  0  0  0  0  0  0  0
   -3.2743    0.2771    2.7947 H   0  0  0  0  0  0  0  0  0  0  0  0
   -4.2735    2.0811    1.6438 Cl  0  0  0  0  0  0  0  0  0  0  0  0
   -2.6763    1.9450    3.8157 C   0  0  0  0  0  0  0  0  0  0  0  0
   -0.2554   -1.3208    0.5415 H   0  0  0  0  0  0  0  0  0  0  0  0
   -0.4697   -1.2313   -1.4161 O   0  0  0  0  0  0  0  0  0  0  0  0
   -0.1004   -0.7120   -2.1609 H   0  0  0  0  0  0  0  0  0  0  0  0
    0.4172   -1.3076    2.6832 H   0  0  0  0  0  0  0  0  0  0  0  0
    1.6470   -2.4392    2.1612 H   0  0  0  0  0  0  0  0  0  0  0  0
    2.0450   -1.3605    3.4307 H   0  0  0  0  0  0  0  0  0  0  0  0
    3.6638    2.0914    1.4930 H   0  0  0  0  0  0  0  0  0  0  0  0
    2.9977    2.7778    2.9592 H   0  0  0  0  0  0  0  0  0  0  0  0
    3.8902    1.2113    3.0438 H   0  0  0  0  0  0  0  0  0  0  0  0
    1.1814   -3.7079    0.6743 H   0  0  0  0  0  0  0  0  0  0  0  0
    0.1140   -3.2499   -0.6291 H   0  0  0  0  0  0  0  0  0  0  0  0
    1.5398   -4.1375   -0.9761 H   0  0  0  0  0  0  0  0  0  0  0  0
    4.0274   -2.8357   -2.4238 H   0  0  0  0  0  0  0  0  0  0  0  0
    5.2041   -3.4881   -1.2377 H   0  0  0  0  0  0  0  0  0  0  0  0
    3.6356   -4.3095   -1.4600 H   0  0  0  0  0  0  0  0  0  0  0  0
    1.8367    2.6654   -1.7541 H   0  0  0  0  0  0  0  0  0  0  0  0
    0.5807    1.9643   -0.7816 H   0  0  0  0  0  0  0  0  0  0  0  0
    2.1610    2.4951   -0.0391 H   0  0  0  0  0  0  0  0  0  0  0  0
    3.8533    2.5383   -2.5231 H   0  0  0  0  0  0  0  0  0  0  0  0
    4.9375    1.2835   -3.1718 H   0  0  0  0  0  0  0  0  0  0  0  0
    3.2036    1.2679   -3.6437 H   0  0  0  0  0  0  0  0  0  0  0  0
   -3.4498    0.4905   -3.0375 H   0  0  0  0  0  0  0  0  0  0  0  0
   -1.7496    0.0977   -3.1248 H   0  0  0  0  0  0  0  0  0  0  0  0
   -2.7818   -0.9245   -2.2578 H   0  0  0  0  0  0  0  0  0  0  0  0
   -1.1636    4.0115   -0.6703 H   0  0  0  0  0  0  0  0  0  0  0  0
   -2.1397    4.5630   -1.9859 H   0  0  0  0  0  0  0  0  0  0  0  0
   -3.0109    3.8709   -0.5941 H   0  0  0  0  0  0  0  0  0  0  0  0
   -1.7829   -1.2759    2.6448 H   0  0  0  0  0  0  0  0  0  0  0  0
   -3.0658   -2.3959    2.3275 H   0  0  0  0  0  0  0  0  0  0  0  0
   -1.5061   -2.6581    1.5383 H   0  0  0  0  0  0  0  0  0  0  0  0
   -4.7941   -0.8854   -1.7220 H   0  0  0  0  0  0  0  0  0  0  0  0
   -5.3767   -2.5229   -1.3706 H   0  0  0  0  0  0  0  0  0  0  0  0
   -5.5267   -1.2171   -0.1580 H   0  0  0  0  0  0  0  0  0  0  0  0
   -0.2529    2.7951    0.8011 H   0  0  0  0  0  0  0  0  0  0  0  0
   -1.9011    3.2823    1.2193 H   0  0  0  0  0  0  0  0  0  0  0  0
   -0.7097    2.9110    2.4320 H   0  0  0  0  0  0  0  0  0  0  0  0
   -2.4439    3.0243    3.7162 H   0  0  0  0  0  0  0  0  0  0  0  0
   -3.6029    1.8829    4.4264 H   0  0  0  0  0  0  0  0  0  0  0  0
   -1.8626    1.4352    4.3731 H   0  0  0  0  0  0  0  0  0  0  0  0
  1 46  1  1  0  0  0
  1 47  1  0  0  0  0
  2  1  1  6  0  0  0
  2  3  1  0  0  0  0
  2 10  1  0  0  0  0
  2 17  1  0  0  0  0
  3  4  1  6  0  0  0
  3  5  1  0  0  0  0
  3  6  1  0  0  0  0
  5 49  1  0  0  0  0
  5 50  1  0  0  0  0
  5 51  1  0  0  0  0
  6  7  1  6  0  0  0
  6  8  1  0  0  0  0
  6  9  1  0  0  0  0
  9 52  1  0  0  0  0
  9 53  1  0  0  0  0
  9 54  1  0  0  0  0
 10 11  1  6  0  0  0
 10 12  1  0  0  0  0
 10 13  1  0  0  0  0
 12 55  1  0  0  0  0
 12 56  1  0  0  0  0
 12 57  1  0  0  0  0
 13 14  1  6  0  0  0
 13 15  1  0  0  0  0
 13 16  1  0  0  0  0
 16 58  1  0  0  0  0
 16 59  1  0  0  0  0
 16 60  1  0  0  0  0
 17 18  1  0  0  0  0
 17 19  1  6  0  0  0
 17 20  1  0  0  0  0
 18 61  1  0  0  0  0
 18 62  1  0  0  0  0
 18 63  1  0  0  0  0
 20 21  1  0  0  0  0
 20 22  1  6  0  0  0
 20 23  1  0  0  0  0
 23 64  1  0  0  0  0
 23 65  1  0  0  0  0
 23 66  1  0  0  0  0
 24  1  1  6  0  0  0
 24 25  1  0  0  0  0
 24 32  1  0  0  0  0
 24 39  1  0  0  0  0
 25 26  1  0  0  0  0
 25 27  1  1  0  0  0
 25 28  1  0  0  0  0
 26 67  1  0  0  0  0
 26 68  1  0  0  0  0
 26 69  1  0  0  0  0
 28 29  1  6  0  0  0
 28 30  1  0  0  0  0
 28 31  1  0  0  0  0
 31 70  1  0  0  0  0
 31 71  1  0  0  0  0
 31 72  1  0  0  0  0
 32 33  1  0  0  0  0
 32 34  1  1  0  0  0
 32 35  1  0  0  0  0
 33 73  1  0  0  0  0
 33 74  1  0  0  0  0
 33 75  1  0  0  0  0
 35 36  1  1  0  0  0
 35 37  1  0  0  0  0
 35 38  1  0  0  0  0
 38 76  1  0  0  0  0
 38 77  1  0  0  0  0
 38 78  1  0  0  0  0
 39 40  1  1  0  0  0
 39 41  1  0  0  0  0
 39 42  1  0  0  0  0
 41 79  1  0  0  0  0
 41 80  1  0  0  0  0
 41 81  1  0  0  0  0
 42 43  1  1  0  0  0
 42 44  1  0  0  0  0
 42 45  1  0  0  0  0
 45 82  1  0  0  0  0
 45 83  1  0  0  0  0
 45 84  1  0  0  0  0
 47 48  1  0  0  0  0
M  END
