
 OpenBabel05281809433D

 43 51  0  0  0  0  0  0  0  0999 V2000
    0.0486    1.8299   18.3922 Fe  0  0  0  0  0  0  0  0  0  0  0  0
   -0.6385    0.0030   18.3694 N   0  0  0  0  0  0  0  0  0  0  0  0
   -0.5036    1.9993   20.2564 N   0  0  0  0  0  0  0  0  0  0  0  0
   -1.4352   -0.6028   19.2671 C   0  0  0  0  0  0  0  0  0  0  0  0
   -1.8625   -0.0037   20.4690 C   0  0  0  0  0  0  0  0  0  0  0  0
   -1.3110    1.1937   20.9673 C   0  0  0  0  0  0  0  0  0  0  0  0
   -0.2555   -0.7748   17.2265 C   0  0  0  0  0  0  0  0  0  0  0  0
   -1.0972   -0.8323   16.1000 C   0  0  0  0  0  0  0  0  0  0  0  0
   -0.6687   -1.5574   14.9807 C   0  0  0  0  0  0  0  0  0  0  0  0
   -1.3057   -1.5948   14.0994 H   0  0  0  0  0  0  0  0  0  0  0  0
    0.5530   -2.2299   14.9848 C   0  0  0  0  0  0  0  0  0  0  0  0
    0.8719   -2.7878   14.1081 H   0  0  0  0  0  0  0  0  0  0  0  0
    1.3638   -2.1866   16.1209 C   0  0  0  0  0  0  0  0  0  0  0  0
    2.3138   -2.7169   16.1316 H   0  0  0  0  0  0  0  0  0  0  0  0
    0.9740   -1.4636   17.2525 C   0  0  0  0  0  0  0  0  0  0  0  0
    0.0092    3.1534   20.9371 C   0  0  0  0  0  0  0  0  0  0  0  0
    1.2820    3.0812   21.5377 C   0  0  0  0  0  0  0  0  0  0  0  0
    1.7982    4.2221   22.1595 C   0  0  0  0  0  0  0  0  0  0  0  0
    2.7827    4.1759   22.6202 H   0  0  0  0  0  0  0  0  0  0  0  0
    1.0685    5.4126   22.1899 C   0  0  0  0  0  0  0  0  0  0  0  0
    1.4844    6.2955   22.6684 H   0  0  0  0  0  0  0  0  0  0  0  0
   -0.1977    5.4627   21.6077 C   0  0  0  0  0  0  0  0  0  0  0  0
   -0.7724    6.3863   21.6367 H   0  0  0  0  0  0  0  0  0  0  0  0
   -0.7510    4.3365   20.9849 C   0  0  0  0  0  0  0  0  0  0  0  0
    1.4393    3.4604   18.3510 C   0  0  0  0  0  0  0  0  0  0  0  0
    1.9193    3.9441   19.1929 H   0  0  0  0  0  0  0  0  0  0  0  0
    0.1639    3.9154   17.9327 C   0  0  0  0  0  0  0  0  0  0  0  0
   -0.5472    3.2448   16.9096 C   0  0  0  0  0  0  0  0  0  0  0  0
    0.0751    2.1422   16.2772 C   0  0  0  0  0  0  0  0  0  0  0  0
    1.3493    1.6845   16.6962 C   0  0  0  0  0  0  0  0  0  0  0  0
    1.7588    0.7865   16.2495 H   0  0  0  0  0  0  0  0  0  0  0  0
    2.0346    2.3227   17.7567 C   0  0  0  0  0  0  0  0  0  0  0  0
    2.9980    1.9580   18.0963 H   0  0  0  0  0  0  0  0  0  0  0  0
   -1.5405    1.4680   21.9353 H   0  0  0  0  0  0  0  0  0  0  0  0
   -2.0100   -0.3508   16.0986 H   0  0  0  0  0  0  0  0  0  0  0  0
    1.5751   -1.4348   18.0908 H   0  0  0  0  0  0  0  0  0  0  0  0
    1.8229    2.2025   21.5190 H   0  0  0  0  0  0  0  0  0  0  0  0
   -1.6952    4.3738   20.5702 H   0  0  0  0  0  0  0  0  0  0  0  0
   -2.6132   -0.4624   21.0085 H   0  0  0  0  0  0  0  0  0  0  0  0
   -1.7526   -1.5635   19.0641 H   0  0  0  0  0  0  0  0  0  0  0  0
   -0.2518    4.7472   18.3804 H   0  0  0  0  0  0  0  0  0  0  0  0
   -0.1884    1.9594   15.2564 H   0  0  0  0  0  0  0  0  0  0  0  0
   -1.2589    3.8089   16.3439 H   0  0  0  0  0  0  0  0  0  0  0  0
  1  3  1  0  0  0  0
  2  1  1  0  0  0  0
  2  4  1  0  0  0  0
  3 16  1  0  0  0  0
  3  6  1  0  0  0  0
  4  5  1  0  0  0  0
  5  6  1  0  0  0  0
  5 39  1  0  0  0  0
  6 34  1  0  0  0  0
  7 15  1  0  0  0  0
  7  2  1  0  0  0  0
  8  7  2  0  0  0  0
  9 11  2  0  0  0  0
  9  8  1  0  0  0  0
 10  9  1  0  0  0  0
 11 13  1  0  0  0  0
 12 11  1  0  0  0  0
 13 14  1  0  0  0  0
 13 15  2  0  0  0  0
 15 36  1  0  0  0  0
 16 24  2  0  0  0  0
 16 17  1  0  0  0  0
 17 18  2  0  0  0  0
 18 20  1  0  0  0  0
 18 19  1  0  0  0  0
 20 21  1  0  0  0  0
 22 23  1  0  0  0  0
 22 20  2  0  0  0  0
 24 22  1  0  0  0  0
 25 26  1  0  0  0  0
 25  1  1  0  0  0  0
 27 25  2  0  0  0  0
 27 41  1  0  0  0  0
 27  1  1  0  0  0  0
 28 27  1  0  0  0  0
 28  1  1  0  0  0  0
 28 43  1  0  0  0  0
 29 30  1  0  0  0  0
 29 28  2  0  0  0  0
 29  1  1  0  0  0  0
 29 42  1  0  0  0  0
 30 32  2  0  0  0  0
 30  1  1  0  0  0  0
 31 30  1  0  0  0  0
 32 33  1  0  0  0  0
 32 25  1  0  0  0  0
 32  1  1  0  0  0  0
 35  8  1  0  0  0  0
 37 17  1  0  0  0  0
 38 24  1  0  0  0  0
 40  4  1  0  0  0  0
M  END
