
 OpenBabel02091811013D

 35 38  0  0  0  0  0  0  0  0999 V2000
    0.0000   -0.0001    0.0001 Fe  0  0  0  0  0  0  0  0  0  0  0  0
    1.9892    1.0702    0.0992 N   0  0  0  0  0  0  0  0  0  0  0  0
    2.3187    1.2592    1.4850 C   0  0  0  0  0  0  0  0  0  0  0  0
    3.0045    2.3787    1.9543 C   0  0  0  0  0  0  0  0  0  0  0  0
   -1.1153    1.7655    1.2190 Cl  0  0  0  0  0  0  0  0  0  0  0  0
    1.0391   -0.7641    1.8565 N   0  0  0  0  0  0  0  0  0  0  0  0
    2.7169    1.6097    4.2296 C   0  0  0  0  0  0  0  0  0  0  0  0
    1.8281    0.3087    2.3941 C   0  0  0  0  0  0  0  0  0  0  0  0
    2.0313    0.4860    3.7620 C   0  0  0  0  0  0  0  0  0  0  0  0
    3.2029    2.5565    3.3256 C   0  0  0  0  0  0  0  0  0  0  0  0
    2.8696    1.7420    5.2968 H   0  0  0  0  0  0  0  0  0  0  0  0
    3.3710    3.1159    1.2442 H   0  0  0  0  0  0  0  0  0  0  0  0
    1.6150   -1.4839    1.4118 H   0  0  0  0  0  0  0  0  0  0  0  0
    2.1212    1.9292   -0.4319 H   0  0  0  0  0  0  0  0  0  0  0  0
    0.4928   -1.2214    2.5846 H   0  0  0  0  0  0  0  0  0  0  0  0
    1.6407   -0.2513    4.4592 H   0  0  0  0  0  0  0  0  0  0  0  0
    3.7362    3.4326    3.6832 H   0  0  0  0  0  0  0  0  0  0  0  0
    2.5663    0.3489   -0.3410 H   0  0  0  0  0  0  0  0  0  0  0  0
   -1.9895   -1.0701   -0.0992 N   0  0  0  0  0  0  0  0  0  0  0  0
   -2.3186   -1.2594   -1.4849 C   0  0  0  0  0  0  0  0  0  0  0  0
   -3.0041   -2.3790   -1.9543 C   0  0  0  0  0  0  0  0  0  0  0  0
    1.1149   -1.7653   -1.2188 Cl  0  0  0  0  0  0  0  0  0  0  0  0
   -1.0388    0.7639   -1.8566 N   0  0  0  0  0  0  0  0  0  0  0  0
   -2.7172   -1.6095   -4.2296 C   0  0  0  0  0  0  0  0  0  0  0  0
   -1.8281   -0.3088   -2.3941 C   0  0  0  0  0  0  0  0  0  0  0  0
   -2.0317   -0.4858   -3.7619 C   0  0  0  0  0  0  0  0  0  0  0  0
   -3.2026   -2.5567   -3.3256 C   0  0  0  0  0  0  0  0  0  0  0  0
   -2.8701   -1.7417   -5.2969 H   0  0  0  0  0  0  0  0  0  0  0  0
   -3.3704   -3.1164   -1.2443 H   0  0  0  0  0  0  0  0  0  0  0  0
   -1.6144    1.4840   -1.4119 H   0  0  0  0  0  0  0  0  0  0  0  0
   -2.1215   -1.9288    0.4323 H   0  0  0  0  0  0  0  0  0  0  0  0
   -0.4925    1.2209   -2.5847 H   0  0  0  0  0  0  0  0  0  0  0  0
   -1.6413    0.2517   -4.4590 H   0  0  0  0  0  0  0  0  0  0  0  0
   -3.7357   -3.4329   -3.6833 H   0  0  0  0  0  0  0  0  0  0  0  0
   -2.5668   -0.3485    0.3404 H   0  0  0  0  0  0  0  0  0  0  0  0
  1  2  1  0  0  0  0
  1  5  1  0  0  0  0
  1  6  1  0  0  0  0
  2  3  1  0  0  0  0
  3  4  2  0  0  0  0
  3  8  1  0  0  0  0
  4 10  1  0  0  0  0
  6  8  1  0  0  0  0
  6 15  1  0  0  0  0
  7 11  1  0  0  0  0
  8  9  2  0  0  0  0
  9  7  1  0  0  0  0
  9 16  1  0  0  0  0
 10 17  1  0  0  0  0
 10  7  2  0  0  0  0
 12  4  1  0  0  0  0
 13  6  1  0  0  0  0
 14  2  1  0  0  0  0
 18  2  1  0  0  0  0
 19  1  1  0  0  0  0
 19 35  1  0  0  0  0
 19 31  1  0  0  0  0
 20 19  1  0  0  0  0
 21 20  2  0  0  0  0
 21 29  1  0  0  0  0
 22  1  1  0  0  0  0
 23 30  1  0  0  0  0
 23  1  1  0  0  0  0
 24 26  1  0  0  0  0
 24 27  2  0  0  0  0
 25 23  1  0  0  0  0
 25 20  1  0  0  0  0
 26 25  2  0  0  0  0
 27 21  1  0  0  0  0
 28 24  1  0  0  0  0
 32 23  1  0  0  0  0
 33 26  1  0  0  0  0
 34 27  1  0  0  0  0
M  END
