
 OpenBabel02081817043D

 17 20  0  0  0  0  0  0  0  0999 V2000
    3.9693    1.4850    1.2328 Fe  0  0  1  0  0  0  0  0  0  0  0  0
    4.8501    0.3309   -0.6541 S   0  0  0  0  0  0  0  0  0  0  0  0
    3.7986   -0.4311    2.6368 S   0  0  0  0  0  0  0  0  0  0  0  0
    5.2044    3.2766    2.1968 S   0  0  0  0  0  0  0  0  0  0  0  0
    1.9972    2.7343    0.7697 S   0  0  0  0  0  0  0  0  0  0  0  0
    1.2312    6.2487    1.4675 O   0  0  0  0  0  0  0  0  0  0  0  0
    4.2193    6.7616    2.7673 O   0  0  0  0  0  0  0  0  0  0  0  0
    5.5984   -3.2346   -1.1099 O   0  0  0  0  0  0  0  0  0  0  0  0
    4.5975   -3.9454    1.9520 O   0  0  0  0  0  0  0  0  0  0  0  0
    3.9235    4.3810    1.9983 C   0  0  0  0  0  0  0  0  0  0  0  0
    2.6464    4.1654    1.4239 C   0  0  0  0  0  0  0  0  0  0  0  0
    2.2332    5.5691    1.6621 C   0  0  0  0  0  0  0  0  0  0  0  0
    3.6282    5.8075    2.2733 C   0  0  0  0  0  0  0  0  0  0  0  0
    4.8091   -1.1837    0.1225 C   0  0  0  0  0  0  0  0  0  0  0  0
    4.3948   -1.4868    1.4428 C   0  0  0  0  0  0  0  0  0  0  0  0
    4.6823   -2.9305    1.2685 C   0  0  0  0  0  0  0  0  0  0  0  0
    5.1467   -2.5985   -0.1633 C   0  0  0  0  0  0  0  0  0  0  0  0
  1  2  1  6  0  0  0
  1  4  1  0  0  0  0
  1  3  1  0  0  0  0
  2 14  2  0  0  0  0
  5  1  1  0  0  0  0
  5 11  2  0  0  0  0
  6 12  2  0  0  0  0
  8 17  2  0  0  0  0
 10  4  2  0  0  0  0
 10 13  1  0  0  0  0
 11 12  1  0  0  0  0
 11 10  1  0  0  0  0
 12 13  1  0  0  0  0
 13  7  2  0  0  0  0
 14 15  1  0  0  0  0
 15  3  2  0  0  0  0
 16 15  1  0  0  0  0
 16  9  2  0  0  0  0
 17 14  1  0  0  0  0
 17 16  1  0  0  0  0
M  END
