
 OpenBabel02081817053D

 69 80  0  0  1  0  0  0  0  0999 V2000
   -2.5206    0.6134    5.2611 Fe  0  0  0  0  0  0  0  0  0  0  0  0
   -0.1377    2.5113    5.0858 Fe  0  0  0  0  0  0  0  0  0  0  0  0
   -0.8131    0.9148    5.1599 O   0  0  0  0  0  0  0  0  0  0  0  0
   -2.7447    1.6887    6.8802 O   0  0  0  0  0  0  0  0  0  0  0  0
   -3.1492    2.1501    4.2121 O   0  0  0  0  0  0  0  0  0  0  0  0
   -1.4682    3.4369    6.1937 O   0  0  0  0  0  0  0  0  0  0  0  0
   -1.1719    3.0124    3.5056 O   0  0  0  0  0  0  0  0  0  0  0  0
   -2.1188   -1.0302    6.2601 N   0  0  0  0  0  0  0  0  0  0  0  0
   -4.4851    0.1704    5.4854 N   0  0  0  0  0  0  0  0  0  0  0  0
   -2.5776   -0.4822    3.6257 N   0  0  0  0  0  0  0  0  0  0  0  0
   -2.8079   -2.1802    6.0229 N   0  0  2  0  0  0  0  0  0  0  0  0
   -4.9373   -1.0998    5.3089 N   0  0  1  0  0  0  0  0  0  0  0  0
   -3.2100   -1.6881    3.6198 N   0  0  2  0  0  0  0  0  0  0  0  0
    0.9870    2.2789    6.6860 N   0  0  0  0  0  0  0  0  0  0  0  0
    0.7282    4.3325    4.8816 N   0  0  0  0  0  0  0  0  0  0  0  0
    1.3510    1.7832    4.0252 N   0  0  0  0  0  0  0  0  0  0  0  0
    2.3034    2.6254    6.6657 N   0  0  2  0  0  0  0  0  0  0  0  0
    2.0717    4.4870    5.0298 N   0  0  1  0  0  0  0  0  0  0  0  0
    2.6314    2.1935    4.2400 N   0  0  2  0  0  0  0  0  0  0  0  0
   -1.1830   -1.3091    7.1773 C   0  0  0  0  0  0  0  0  0  0  0  0
   -1.2677   -2.6593    7.5518 C   0  0  0  0  0  0  0  0  0  0  0  0
   -2.3094   -3.1772    6.7929 C   0  0  0  0  0  0  0  0  0  0  0  0
   -5.5494    0.9346    5.7676 C   0  0  0  0  0  0  0  0  0  0  0  0
   -6.7126    0.1506    5.7763 C   0  0  0  0  0  0  0  0  0  0  0  0
   -6.2784   -1.1377    5.4773 C   0  0  0  0  0  0  0  0  0  0  0  0
   -2.1466   -0.2524    2.3764 C   0  0  0  0  0  0  0  0  0  0  0  0
   -2.4955   -1.3265    1.5452 C   0  0  0  0  0  0  0  0  0  0  0  0
   -3.1718   -2.2146    2.3735 C   0  0  0  0  0  0  0  0  0  0  0  0
    0.7022    1.8692    7.9310 C   0  0  0  0  0  0  0  0  0  0  0  0
    1.8508    1.9411    8.7323 C   0  0  0  0  0  0  0  0  0  0  0  0
    2.8437    2.4290    7.8909 C   0  0  0  0  0  0  0  0  0  0  0  0
    0.2179    5.5418    4.6093 C   0  0  0  0  0  0  0  0  0  0  0  0
    1.2437    6.4980    4.5780 C   0  0  0  0  0  0  0  0  0  0  0  0
    2.4072    5.7846    4.8524 C   0  0  0  0  0  0  0  0  0  0  0  0
    1.3895    0.8448    3.0694 C   0  0  0  0  0  0  0  0  0  0  0  0
    2.7134    0.6461    2.6473 C   0  0  0  0  0  0  0  0  0  0  0  0
    3.4704    1.5192    3.4178 C   0  0  0  0  0  0  0  0  0  0  0  0
   -2.3394    2.8976    6.9425 C   0  0  1  0  0  0  0  0  0  0  0  0
   -2.9837    3.7692    7.9972 C   0  0  0  0  0  0  0  0  0  0  0  0
   -2.4412    2.8887    3.4607 C   0  0  2  0  0  0  0  0  0  0  0  0
   -3.1750    3.7119    2.4257 C   0  0  0  0  0  0  0  0  0  0  0  0
   -3.8961   -2.1778    4.9244 B   0  0  1  0  0  0  0  0  0  0  0  0
    2.8996    3.2229    5.3623 B   0  0  2  0  0  0  0  0  0  0  0  0
   -4.3933   -3.2565    4.7841 H   0  0  0  0  0  0  0  0  0  0  0  0
    4.0652    3.4644    5.4795 H   0  0  0  0  0  0  0  0  0  0  0  0
   -0.5001   -0.5381    7.4974 H   0  0  0  0  0  0  0  0  0  0  0  0
   -0.6561   -3.1825    8.2719 H   0  0  0  0  0  0  0  0  0  0  0  0
   -2.7304   -4.1709    6.7409 H   0  0  0  0  0  0  0  0  0  0  0  0
   -5.4165    1.9922    5.9405 H   0  0  0  0  0  0  0  0  0  0  0  0
   -7.7255    0.4718    5.9705 H   0  0  0  0  0  0  0  0  0  0  0  0
   -6.8208   -2.0667    5.3729 H   0  0  0  0  0  0  0  0  0  0  0  0
   -1.6221    0.6630    2.1467 H   0  0  0  0  0  0  0  0  0  0  0  0
   -2.2843   -1.4402    0.4922 H   0  0  0  0  0  0  0  0  0  0  0  0
   -3.6270   -3.1733    2.1702 H   0  0  0  0  0  0  0  0  0  0  0  0
   -0.3010    1.5554    8.1786 H   0  0  0  0  0  0  0  0  0  0  0  0
    1.9444    1.6745    9.7746 H   0  0  0  0  0  0  0  0  0  0  0  0
    3.8856    2.6513    8.0713 H   0  0  0  0  0  0  0  0  0  0  0  0
   -0.8453    5.6498    4.4547 H   0  0  0  0  0  0  0  0  0  0  0  0
    1.1552    7.5570    4.3844 H   0  0  0  0  0  0  0  0  0  0  0  0
    3.4366    6.1035    4.9332 H   0  0  0  0  0  0  0  0  0  0  0  0
    0.4784    0.3599    2.7570 H   0  0  0  0  0  0  0  0  0  0  0  0
    3.0675   -0.0374    1.8897 H   0  0  0  0  0  0  0  0  0  0  0  0
    4.5335    1.7106    3.4448 H   0  0  0  0  0  0  0  0  0  0  0  0
   -3.9488    4.1209    7.6138 H   0  0  0  0  0  0  0  0  0  0  0  0
   -2.3556    4.6326    8.2218 H   0  0  0  0  0  0  0  0  0  0  0  0
   -3.1743    3.1868    8.9018 H   0  0  0  0  0  0  0  0  0  0  0  0
   -3.9435    3.1056    1.9404 H   0  0  0  0  0  0  0  0  0  0  0  0
   -2.4799    4.1143    1.6873 H   0  0  0  0  0  0  0  0  0  0  0  0
   -3.6731    4.5445    2.9354 H   0  0  0  0  0  0  0  0  0  0  0  0
  1  9  1  0  0  0  0
  1  8  1  0  0  0  0
  1  4  1  0  0  0  0
  2  3  1  0  0  0  0
  2  6  1  0  0  0  0
  2 14  1  0  0  0  0
  3  1  1  0  0  0  0
  4 38  1  0  0  0  0
  5  1  1  0  0  0  0
  6 38  1  0  0  0  0
  7  2  1  0  0  0  0
  8 20  1  0  0  0  0
  9 23  1  0  0  0  0
 10  1  1  0  0  0  0
 11  8  1  6  0  0  0
 11 22  1  0  0  0  0
 12 25  1  6  0  0  0
 12  9  1  0  0  0  0
 13 28  1  6  0  0  0
 13 10  1  0  0  0  0
 13 42  1  0  0  0  0
 14 29  1  0  0  0  0
 15 18  1  0  0  0  0
 15  2  1  0  0  0  0
 16 19  1  0  0  0  0
 16  2  1  0  0  0  0
 17 14  1  1  0  0  0
 17 31  1  0  0  0  0
 18 34  1  1  0  0  0
 18 43  1  0  0  0  0
 19 37  1  1  0  0  0
 19 43  1  0  0  0  0
 20 46  1  0  0  0  0
 20 21  2  0  0  0  0
 21 47  1  0  0  0  0
 22 21  1  0  0  0  0
 23 24  2  0  0  0  0
 23 49  1  0  0  0  0
 24 50  1  0  0  0  0
 25 24  1  0  0  0  0
 26 10  1  0  0  0  0
 27 28  1  0  0  0  0
 27 26  2  0  0  0  0
 29 55  1  0  0  0  0
 29 30  2  0  0  0  0
 30 56  1  0  0  0  0
 31 57  1  0  0  0  0
 31 30  1  0  0  0  0
 32 15  1  0  0  0  0
 33 32  2  0  0  0  0
 33 34  1  0  0  0  0
 34 60  1  0  0  0  0
 35 16  1  0  0  0  0
 36 35  2  0  0  0  0
 36 37  1  0  0  0  0
 37 63  1  0  0  0  0
 38 39  1  6  0  0  0
 39 65  1  0  0  0  0
 39 66  1  0  0  0  0
 40 41  1  1  0  0  0
 40  7  1  0  0  0  0
 40  5  1  0  0  0  0
 41 69  1  0  0  0  0
 42 44  1  6  0  0  0
 42 12  1  0  0  0  0
 42 11  1  0  0  0  0
 43 45  1  1  0  0  0
 43 17  1  0  0  0  0
 48 22  1  0  0  0  0
 51 25  1  0  0  0  0
 52 26  1  0  0  0  0
 53 27  1  0  0  0  0
 54 28  1  0  0  0  0
 58 32  1  0  0  0  0
 59 33  1  0  0  0  0
 61 35  1  0  0  0  0
 62 36  1  0  0  0  0
 64 39  1  0  0  0  0
 67 41  1  0  0  0  0
 68 41  1  0  0  0  0
M  END
