
 OpenBabel02081817063D

 45 48  0  0  1  0  0  0  0  0999 V2000
    0.0029   -0.0010    0.0008 Fe  0  0  0  0  0  0  0  0  0  0  0  0
    1.9926   -0.1319   -0.3663 N   0  0  2  0  0  0  0  0  0  0  0  0
    2.4633    0.3556    0.4009 H   0  0  0  0  0  0  0  0  0  0  0  0
   -0.0349   -1.5210    1.3413 N   0  0  2  0  0  0  0  0  0  0  0  0
    0.3205   -1.0607    2.1851 H   0  0  0  0  0  0  0  0  0  0  0  0
    0.2930    1.1590    1.5374 N   0  0  0  0  0  0  0  0  0  0  0  0
    1.0637    2.0759    1.6885 N   0  0  0  0  0  0  0  0  0  0  0  0
    1.7726    2.9672    1.9092 N   0  0  0  0  0  0  0  0  0  0  0  0
    2.2746    0.6210   -1.6250 C   0  0  0  0  0  0  0  0  0  0  0  0
    1.9553   -0.0138   -2.4559 H   0  0  0  0  0  0  0  0  0  0  0  0
    3.3454    0.8243   -1.7227 H   0  0  0  0  0  0  0  0  0  0  0  0
    2.5598   -1.5124   -0.4127 C   0  0  0  0  0  0  0  0  0  0  0  0
    3.6394   -1.4340   -0.5855 H   0  0  0  0  0  0  0  0  0  0  0  0
    2.1042   -2.0136   -1.2703 H   0  0  0  0  0  0  0  0  0  0  0  0
    2.2916   -2.2922    0.8721 C   0  0  0  0  0  0  0  0  0  0  0  0
    2.6466   -1.7232    1.7420 H   0  0  0  0  0  0  0  0  0  0  0  0
    2.8903   -3.2078    0.8347 H   0  0  0  0  0  0  0  0  0  0  0  0
    0.8342   -2.6991    1.0738 C   0  0  0  0  0  0  0  0  0  0  0  0
    0.4479   -3.2045    0.1846 H   0  0  0  0  0  0  0  0  0  0  0  0
    0.7523   -3.3911    1.9205 H   0  0  0  0  0  0  0  0  0  0  0  0
   -1.4539   -1.8973    1.6050 C   0  0  0  0  0  0  0  0  0  0  0  0
   -1.5393   -2.4466    2.5479 H   0  0  0  0  0  0  0  0  0  0  0  0
   -1.7865   -2.5528    0.7955 H   0  0  0  0  0  0  0  0  0  0  0  0
    1.4635    1.9004   -1.5916 C   0  0  0  0  0  0  0  0  0  0  0  0
    0.0440    1.5182   -1.3401 N   0  0  2  0  0  0  0  0  0  0  0  0
   -1.9869    0.1273    0.3705 N   0  0  1  0  0  0  0  0  0  0  0  0
   -2.4594   -0.3690   -0.3899 H   0  0  0  0  0  0  0  0  0  0  0  0
   -2.2620   -0.6160    1.6363 C   0  0  0  0  0  0  0  0  0  0  0  0
   -1.9356    0.0242    2.4601 H   0  0  0  0  0  0  0  0  0  0  0  0
   -3.3327   -0.8167    1.7429 H   0  0  0  0  0  0  0  0  0  0  0  0
   -0.2900   -1.1606   -1.5368 N   0  0  0  0  0  0  0  0  0  0  0  0
   -1.0737   -2.0671   -1.6849 N   0  0  0  0  0  0  0  0  0  0  0  0
   -1.7964   -2.9483   -1.9015 N   0  0  0  0  0  0  0  0  0  0  0  0
   -2.5590    1.5060    0.4048 C   0  0  0  0  0  0  0  0  0  0  0  0
   -3.6387    1.4255    0.5757 H   0  0  0  0  0  0  0  0  0  0  0  0
   -2.1072    2.0156    1.2595 H   0  0  0  0  0  0  0  0  0  0  0  0
   -2.2895    2.2758   -0.8858 C   0  0  0  0  0  0  0  0  0  0  0  0
   -2.6344    1.6954   -1.7524 H   0  0  0  0  0  0  0  0  0  0  0  0
   -2.8958    3.1867   -0.8614 H   0  0  0  0  0  0  0  0  0  0  0  0
   -0.8339    2.6919   -1.0821 C   0  0  0  0  0  0  0  0  0  0  0  0
   -0.3014    1.0551   -2.1865 H   0  0  0  0  0  0  0  0  0  0  0  0
   -0.4556    3.2040   -0.1934 H   0  0  0  0  0  0  0  0  0  0  0  0
    1.5541    2.4553   -2.5307 H   0  0  0  0  0  0  0  0  0  0  0  0
    1.7888    2.5522   -0.7764 H   0  0  0  0  0  0  0  0  0  0  0  0
   -0.7522    3.3805   -1.9315 H   0  0  0  0  0  0  0  0  0  0  0  0
  1 26  1  0  0  0  0
  1  4  1  0  0  0  0
  1  6  1  0  0  0  0
  2  1  1  0  0  0  0
  2  3  1  1  0  0  0
  4 21  1  0  0  0  0
  4  5  1  1  0  0  0
  6  7  2  0  0  0  0
  7  8  2  0  0  0  0
  9 24  1  0  0  0  0
  9  2  1  0  0  0  0
 10  9  1  0  0  0  0
 11  9  1  0  0  0  0
 12  2  1  0  0  0  0
 12 15  1  0  0  0  0
 13 12  1  0  0  0  0
 14 12  1  0  0  0  0
 15 18  1  0  0  0  0
 15 16  1  0  0  0  0
 17 15  1  0  0  0  0
 18  4  1  0  0  0  0
 18 20  1  0  0  0  0
 19 18  1  0  0  0  0
 21 28  1  0  0  0  0
 21 22  1  0  0  0  0
 23 21  1  0  0  0  0
 24 25  1  0  0  0  0
 24 44  1  0  0  0  0
 25 41  1  6  0  0  0
 25 40  1  0  0  0  0
 25  1  1  0  0  0  0
 26 27  1  6  0  0  0
 26 34  1  0  0  0  0
 26 28  1  0  0  0  0
 28 30  1  0  0  0  0
 28 29  1  0  0  0  0
 31  1  1  0  0  0  0
 32 31  2  0  0  0  0
 33 32  2  0  0  0  0
 34 35  1  0  0  0  0
 34 36  1  0  0  0  0
 37 39  1  0  0  0  0
 37 34  1  0  0  0  0
 38 37  1  0  0  0  0
 40 37  1  0  0  0  0
 40 42  1  0  0  0  0
 43 24  1  0  0  0  0
 45 40  1  0  0  0  0
M  END
