
 OpenBabel02081817083D

 58 61  0  0  1  0  0  0  0  0999 V2000
    0.0002   -0.0218    0.2133 Fe  0  0  0  0  0  0  0  0  0  0  0  0
    0.0042   -0.0015    1.8594 O   0  0  0  0  0  0  0  0  0  0  0  0
    1.5666   -1.3932    0.3375 N   0  0  1  0  0  0  0  0  0  0  0  0
    1.5344    1.4399    0.1391 N   0  0  2  0  0  0  0  0  0  0  0  0
   -1.5445    1.4290    0.1468 N   0  0  2  0  0  0  0  0  0  0  0  0
   -1.5560   -1.4041    0.3446 N   0  0  2  0  0  0  0  0  0  0  0  0
    2.6328   -0.6036    1.0425 C   0  0  0  0  0  0  0  0  0  0  0  0
    3.5648   -1.1804    1.0592 H   0  0  0  0  0  0  0  0  0  0  0  0
    2.2886   -0.4540    2.0662 H   0  0  0  0  0  0  0  0  0  0  0  0
    2.8430    0.7105    0.3404 C   0  0  0  0  0  0  0  0  0  0  0  0
    3.2819    0.5525   -0.6460 H   0  0  0  0  0  0  0  0  0  0  0  0
    3.5294    1.3470    0.9075 H   0  0  0  0  0  0  0  0  0  0  0  0
    1.3009    2.3754    1.2986 C   0  0  0  0  0  0  0  0  0  0  0  0
    2.1376    3.0859    1.3106 H   0  0  0  0  0  0  0  0  0  0  0  0
    1.3388    1.7718    2.2057 H   0  0  0  0  0  0  0  0  0  0  0  0
   -0.0085    3.1599    1.2306 C   0  0  0  0  0  0  0  0  0  0  0  0
   -0.0086    3.8226    2.1037 H   0  0  0  0  0  0  0  0  0  0  0  0
   -0.0129    3.8256    0.3622 H   0  0  0  0  0  0  0  0  0  0  0  0
   -1.3121    2.3665    1.3048 C   0  0  0  0  0  0  0  0  0  0  0  0
   -1.3419    1.7630    2.2123 H   0  0  0  0  0  0  0  0  0  0  0  0
   -2.1535    3.0713    1.3204 H   0  0  0  0  0  0  0  0  0  0  0  0
   -2.8470    0.6905    0.3550 C   0  0  0  0  0  0  0  0  0  0  0  0
   -3.5346    1.3224    0.9258 H   0  0  0  0  0  0  0  0  0  0  0  0
   -3.2900    0.5294   -0.6290 H   0  0  0  0  0  0  0  0  0  0  0  0
   -2.6237   -0.6221    1.0558 C   0  0  0  0  0  0  0  0  0  0  0  0
   -3.5515   -1.2053    1.0779 H   0  0  0  0  0  0  0  0  0  0  0  0
   -2.2747   -0.4700    2.0775 H   0  0  0  0  0  0  0  0  0  0  0  0
   -1.2469   -2.5887    1.2139 C   0  0  0  0  0  0  0  0  0  0  0  0
   -2.1223   -3.2485    1.1777 H   0  0  0  0  0  0  0  0  0  0  0  0
   -1.1410   -2.2082    2.2320 H   0  0  0  0  0  0  0  0  0  0  0  0
    0.0136   -3.3447    0.8285 C   0  0  0  0  0  0  0  0  0  0  0  0
    0.0131   -3.6413   -0.2253 H   0  0  0  0  0  0  0  0  0  0  0  0
    0.0181   -4.2767    1.4028 H   0  0  0  0  0  0  0  0  0  0  0  0
    1.2694   -2.5788    1.2096 C   0  0  0  0  0  0  0  0  0  0  0  0
    1.1635   -2.1975    2.2275 H   0  0  0  0  0  0  0  0  0  0  0  0
    2.1497   -3.2317    1.1720 H   0  0  0  0  0  0  0  0  0  0  0  0
    2.0780   -1.8884   -0.9753 C   0  0  0  0  0  0  0  0  0  0  0  0
    2.9421   -2.5377   -0.7999 H   0  0  0  0  0  0  0  0  0  0  0  0
    2.3754   -1.0528   -1.6051 H   0  0  0  0  0  0  0  0  0  0  0  0
    1.2955   -2.4521   -1.4811 H   0  0  0  0  0  0  0  0  0  0  0  0
    1.7275    2.2505   -1.1029 C   0  0  0  0  0  0  0  0  0  0  0  0
    2.5850    2.9166   -0.9562 H   0  0  0  0  0  0  0  0  0  0  0  0
    0.8526    2.8531   -1.3211 H   0  0  0  0  0  0  0  0  0  0  0  0
    1.9281    1.5866   -1.9410 H   0  0  0  0  0  0  0  0  0  0  0  0
   -1.7500    2.2377   -1.0946 C   0  0  0  0  0  0  0  0  0  0  0  0
   -2.6137    2.8950   -0.9449 H   0  0  0  0  0  0  0  0  0  0  0  0
   -1.9468    1.5714   -1.9318 H   0  0  0  0  0  0  0  0  0  0  0  0
   -0.8821    2.8493   -1.3158 H   0  0  0  0  0  0  0  0  0  0  0  0
   -2.0708   -1.9012   -0.9662 C   0  0  0  0  0  0  0  0  0  0  0  0
   -2.9321   -2.5532   -0.7874 H   0  0  0  0  0  0  0  0  0  0  0  0
   -1.2881   -2.4628   -1.4743 H   0  0  0  0  0  0  0  0  0  0  0  0
   -2.3728   -1.0669   -1.5955 H   0  0  0  0  0  0  0  0  0  0  0  0
   -0.0040   -0.0855   -1.7961 N   0  0  0  0  0  0  0  0  0  0  0  0
   -0.0041   -0.1104   -2.9515 C   0  0  0  0  0  0  0  0  0  0  0  0
   -0.0034   -0.1463   -4.3944 C   0  0  0  0  0  0  0  0  0  0  0  0
   -0.6246    0.6692   -4.7775 H   0  0  0  0  0  0  0  0  0  0  0  0
   -0.4062   -1.1056   -4.7333 H   0  0  0  0  0  0  0  0  0  0  0  0
    1.0214   -0.0290   -4.7593 H   0  0  0  0  0  0  0  0  0  0  0  0
  1  3  1  0  0  0  0
  1  6  1  0  0  0  0
  1  2  1  0  0  0  0
  3 37  1  6  0  0  0
  3  7  1  0  0  0  0
  3 34  1  0  0  0  0
  4 41  1  6  0  0  0
  4  1  1  0  0  0  0
  4 10  1  0  0  0  0
  4 13  1  0  0  0  0
  5 45  1  6  0  0  0
  5  1  1  0  0  0  0
  5 22  1  0  0  0  0
  5 19  1  0  0  0  0
  6 49  1  6  0  0  0
  6 25  1  0  0  0  0
  6 28  1  0  0  0  0
  7  8  1  0  0  0  0
  7  9  1  0  0  0  0
 10 12  1  0  0  0  0
 10  7  1  0  0  0  0
 11 10  1  0  0  0  0
 13 14  1  0  0  0  0
 13 15  1  0  0  0  0
 16 13  1  0  0  0  0
 16 19  1  0  0  0  0
 16 17  1  0  0  0  0
 18 16  1  0  0  0  0
 19 21  1  0  0  0  0
 19 20  1  0  0  0  0
 22 23  1  0  0  0  0
 22 25  1  0  0  0  0
 24 22  1  0  0  0  0
 25 26  1  0  0  0  0
 25 27  1  0  0  0  0
 28 30  1  0  0  0  0
 29 28  1  0  0  0  0
 31 34  1  0  0  0  0
 31 28  1  0  0  0  0
 31 33  1  0  0  0  0
 32 31  1  0  0  0  0
 34 35  1  0  0  0  0
 36 34  1  0  0  0  0
 37 38  1  0  0  0  0
 39 37  1  0  0  0  0
 40 37  1  0  0  0  0
 41 42  1  0  0  0  0
 43 41  1  0  0  0  0
 44 41  1  0  0  0  0
 45 46  1  0  0  0  0
 47 45  1  0  0  0  0
 48 45  1  0  0  0  0
 49 50  1  0  0  0  0
 51 49  1  0  0  0  0
 52 49  1  0  0  0  0
 53  1  1  0  0  0  0
 54 53  1  0  0  0  0
 55 54  1  0  0  0  0
 56 55  1  0  0  0  0
 57 55  1  0  0  0  0
 58 55  1  0  0  0  0
M  END
