
 OpenBabel02081817083D

 42 48  0  0  0  0  0  0  0  0999 V2000
    0.0002   -0.8628   -0.0042 Fe  0  0  0  0  0  0  0  0  0  0  0  0
   -0.0067   -2.5006   -0.0048 N   0  0  0  0  0  0  0  0  0  0  0  0
   -0.0127   -3.6429   -0.0027 O   0  0  0  0  0  0  0  0  0  0  0  0
   -1.6548   -0.6345   -1.5340 S   0  0  1  0  0  0  0  0  0  0  0  0
   -1.5662   -0.7450    1.7061 S   0  0  0  0  0  0  0  0  0  0  0  0
    1.5658   -0.7452   -1.7145 S   0  0  0  0  0  0  0  0  0  0  0  0
    1.6576   -0.6516    1.5255 S   0  0  1  0  0  0  0  0  0  0  0  0
   -5.4280    0.1200    0.8976 C   0  0  0  0  0  0  0  0  0  0  0  0
   -5.4795    0.1588   -0.5016 C   0  0  0  0  0  0  0  0  0  0  0  0
   -4.3196   -0.0713   -1.2342 C   0  0  0  0  0  0  0  0  0  0  0  0
   -3.1176   -0.3145   -0.5594 C   0  0  0  0  0  0  0  0  0  0  0  0
   -3.0475   -0.3710    0.8409 C   0  0  0  0  0  0  0  0  0  0  0  0
   -4.2363   -0.1452    1.5631 C   0  0  0  0  0  0  0  0  0  0  0  0
    3.0501   -0.3848   -0.8490 C   0  0  0  0  0  0  0  0  0  0  0  0
    3.1220   -0.3372    0.5515 C   0  0  0  0  0  0  0  0  0  0  0  0
    4.2396   -0.1625   -1.5711 C   0  0  0  0  0  0  0  0  0  0  0  0
    5.4340    0.0894   -0.9051 C   0  0  0  0  0  0  0  0  0  0  0  0
    5.4874    0.1177    0.4943 C   0  0  0  0  0  0  0  0  0  0  0  0
    4.3265   -0.1083    1.2267 C   0  0  0  0  0  0  0  0  0  0  0  0
   -1.2067    1.0464   -2.1052 C   0  0  0  0  0  0  0  0  0  0  0  0
    1.2196    1.0286    2.1069 C   0  0  0  0  0  0  0  0  0  0  0  0
    0.6207    1.8371    1.0016 C   0  0  0  0  0  0  0  0  0  0  0  0
   -0.6114    1.8459   -0.9917 C   0  0  0  0  0  0  0  0  0  0  0  0
    0.0049    1.1599    0.0020 N   0  0  0  0  0  0  0  0  0  0  0  0
   -0.6428    3.2361   -0.9985 C   0  0  0  0  0  0  0  0  0  0  0  0
    0.6481    3.2273    1.0229 C   0  0  0  0  0  0  0  0  0  0  0  0
    0.0012    3.9372    0.0163 C   0  0  0  0  0  0  0  0  0  0  0  0
   -6.3301    0.2937    1.4773 H   0  0  0  0  0  0  0  0  0  0  0  0
   -6.4137    0.3605   -1.0155 H   0  0  0  0  0  0  0  0  0  0  0  0
   -4.3404   -0.0578   -2.3203 H   0  0  0  0  0  0  0  0  0  0  0  0
   -4.2134   -0.1797    2.6484 H   0  0  0  0  0  0  0  0  0  0  0  0
    4.2152   -0.1893   -2.6566 H   0  0  0  0  0  0  0  0  0  0  0  0
    6.3366    0.2607   -1.4846 H   0  0  0  0  0  0  0  0  0  0  0  0
    6.4239    0.3083    1.0084 H   0  0  0  0  0  0  0  0  0  0  0  0
    4.3487   -0.1027    2.3128 H   0  0  0  0  0  0  0  0  0  0  0  0
   -2.0995    1.5114   -2.5274 H   0  0  0  0  0  0  0  0  0  0  0  0
   -0.4755    0.8874   -2.9046 H   0  0  0  0  0  0  0  0  0  0  0  0
    2.1170    1.4877    2.5259 H   0  0  0  0  0  0  0  0  0  0  0  0
    0.4930    0.8687    2.9102 H   0  0  0  0  0  0  0  0  0  0  0  0
   -1.1576    3.7521   -1.8011 H   0  0  0  0  0  0  0  0  0  0  0  0
    1.1618    3.7363    1.8307 H   0  0  0  0  0  0  0  0  0  0  0  0
   -0.0009    5.0220    0.0224 H   0  0  0  0  0  0  0  0  0  0  0  0
  1 24  1  0  0  0  0
  1  5  1  0  0  0  0
  2  1  1  0  0  0  0
  2  3  1  0  0  0  0
  4 20  1  6  0  0  0
  4 11  1  0  0  0  0
  4  1  1  0  0  0  0
  6 14  1  0  0  0  0
  6  1  1  0  0  0  0
  7  1  1  6  0  0  0
  7 21  1  0  0  0  0
  8 28  1  0  0  0  0
  8 13  1  0  0  0  0
  9  8  2  0  0  0  0
 10 11  2  0  0  0  0
 10  9  1  0  0  0  0
 11 12  1  0  0  0  0
 12 13  2  0  0  0  0
 12  5  1  0  0  0  0
 13 31  1  0  0  0  0
 14 15  2  0  0  0  0
 15 19  1  0  0  0  0
 15  7  1  0  0  0  0
 16 17  2  0  0  0  0
 16 14  1  0  0  0  0
 17 18  1  0  0  0  0
 18 34  1  0  0  0  0
 18 19  2  0  0  0  0
 19 35  1  0  0  0  0
 20 23  1  0  0  0  0
 21 38  1  0  0  0  0
 21 39  1  0  0  0  0
 22 26  2  0  0  0  0
 22 21  1  0  0  0  0
 23 24  1  0  0  0  0
 24 22  1  0  0  0  0
 25 23  2  0  0  0  0
 25 27  1  0  0  0  0
 26 41  1  0  0  0  0
 27 42  1  0  0  0  0
 27 26  1  0  0  0  0
 29  9  1  0  0  0  0
 30 10  1  0  0  0  0
 32 16  1  0  0  0  0
 33 17  1  0  0  0  0
 36 20  1  0  0  0  0
 37 20  1  0  0  0  0
 40 25  1  0  0  0  0
M  END
