
 OpenBabel02081817083D

 44 46  0  0  0  0  0  0  0  0999 V2000
   -0.1015   -0.0512   -0.3188 Fe  0  0  0  0  0  0  0  0  0  0  0  0
    1.2673   -0.5909   -1.2853 C   0  0  0  0  0  0  0  0  0  0  0  0
   -2.1109    3.9998    1.2920 H   0  0  0  0  0  0  0  0  0  0  0  0
   -1.8684    0.9764    0.9027 S   0  0  0  0  0  0  0  0  0  0  0  0
    0.8871   -0.0491    1.2715 C   0  0  0  0  0  0  0  0  0  0  0  0
   -0.6750   -1.9022    0.2299 C   0  0  0  0  0  0  0  0  0  0  0  0
   -1.2658   -0.1989   -1.6791 C   0  0  0  0  0  0  0  0  0  0  0  0
    2.1641   -0.9512   -1.9248 O   0  0  0  0  0  0  0  0  0  0  0  0
   -1.7142   -2.0698    0.8462 O   0  0  0  0  0  0  0  0  0  0  0  0
    1.4955   -0.0248    2.2747 N   0  0  0  0  0  0  0  0  0  0  0  0
    1.0239    2.4352    3.5797 C   0  0  0  0  0  0  0  0  0  0  0  0
    2.1247    0.1543    3.4934 C   0  0  0  0  0  0  0  0  0  0  0  0
    2.9426   -0.8793    3.9886 C   0  0  0  0  0  0  0  0  0  0  0  0
    3.5599   -0.6654    5.2232 C   0  0  0  0  0  0  0  0  0  0  0  0
    3.3645    0.5254    5.9250 C   0  0  0  0  0  0  0  0  0  0  0  0
    2.5471    1.5305    5.4049 C   0  0  0  0  0  0  0  0  0  0  0  0
    1.9072    1.3706    4.1736 C   0  0  0  0  0  0  0  0  0  0  0  0
    3.1267   -2.1532    3.2069 C   0  0  0  0  0  0  0  0  0  0  0  0
    4.1983   -1.4420    5.6354 H   0  0  0  0  0  0  0  0  0  0  0  0
    3.8527    0.6711    6.8845 H   0  0  0  0  0  0  0  0  0  0  0  0
    2.4009    2.4539    5.9588 H   0  0  0  0  0  0  0  0  0  0  0  0
    3.5391   -1.9476    2.2120 H   0  0  0  0  0  0  0  0  0  0  0  0
    2.1678   -2.6650    3.0614 H   0  0  0  0  0  0  0  0  0  0  0  0
    3.8043   -2.8322    3.7294 H   0  0  0  0  0  0  0  0  0  0  0  0
    0.9389    3.2875    4.2571 H   0  0  0  0  0  0  0  0  0  0  0  0
    0.0201    2.0457    3.3741 H   0  0  0  0  0  0  0  0  0  0  0  0
    1.4266    2.7903    2.6234 H   0  0  0  0  0  0  0  0  0  0  0  0
    2.7303    1.8021   -1.0748 H   0  0  0  0  0  0  0  0  0  0  0  0
   -2.0284   -0.3347   -2.5341 O   0  0  0  0  0  0  0  0  0  0  0  0
    2.6898    3.2997   -2.0312 H   0  0  0  0  0  0  0  0  0  0  0  0
    1.7410    1.8833   -2.5382 H   0  0  0  0  0  0  0  0  0  0  0  0
   -0.5492    5.7416    0.3896 H   0  0  0  0  0  0  0  0  0  0  0  0
    0.0706    2.0185   -0.3710 N   0  0  0  0  0  0  0  0  0  0  0  0
    0.9290    2.9430   -0.8609 C   0  0  0  0  0  0  0  0  0  0  0  0
    0.7153    4.2952   -0.5944 C   0  0  0  0  0  0  0  0  0  0  0  0
   -0.3828    4.6888    0.1794 C   0  0  0  0  0  0  0  0  0  0  0  0
   -1.2549    3.7331    0.6815 C   0  0  0  0  0  0  0  0  0  0  0  0
   -0.9935    2.3896    0.3863 C   0  0  0  0  0  0  0  0  0  0  0  0
    2.0911    2.4591   -1.6748 C   0  0  0  0  0  0  0  0  0  0  0  0
    1.4065    5.0308   -0.9917 H   0  0  0  0  0  0  0  0  0  0  0  0
    0.2158   -3.0884   -0.1002 C   0  0  0  0  0  0  0  0  0  0  0  0
    1.2302   -2.9004    0.2682 H   0  0  0  0  0  0  0  0  0  0  0  0
    0.2842   -3.1907   -1.1892 H   0  0  0  0  0  0  0  0  0  0  0  0
   -0.1818   -4.0096    0.3368 H   0  0  0  0  0  0  0  0  0  0  0  0
  1  6  1  0  0  0  0
  1  4  1  0  0  0  0
  1  5  1  0  0  0  0
  2  1  1  0  0  0  0
  5 10  1  0  0  0  0
  6  9  2  0  0  0  0
  7  1  1  0  0  0  0
  8  2  1  0  0  0  0
 10 12  1  0  0  0  0
 11 17  1  0  0  0  0
 11 25  1  0  0  0  0
 12 13  2  0  0  0  0
 12 17  1  0  0  0  0
 13 14  1  0  0  0  0
 14 19  1  0  0  0  0
 14 15  2  0  0  0  0
 15 20  1  0  0  0  0
 16 15  1  0  0  0  0
 16 21  1  0  0  0  0
 17 16  2  0  0  0  0
 18 24  1  0  0  0  0
 18 13  1  0  0  0  0
 22 18  1  0  0  0  0
 23 18  1  0  0  0  0
 26 11  1  0  0  0  0
 27 11  1  0  0  0  0
 29  7  1  0  0  0  0
 30 39  1  0  0  0  0
 31 39  1  0  0  0  0
 33  1  1  0  0  0  0
 33 38  1  0  0  0  0
 34 35  2  0  0  0  0
 34 33  1  0  0  0  0
 35 36  1  0  0  0  0
 36 32  1  0  0  0  0
 36 37  1  0  0  0  0
 37  3  1  0  0  0  0
 38 37  2  0  0  0  0
 38  4  1  0  0  0  0
 39 28  1  0  0  0  0
 39 34  1  0  0  0  0
 40 35  1  0  0  0  0
 41  6  1  0  0  0  0
 41 42  1  0  0  0  0
 41 44  1  0  0  0  0
 43 41  1  0  0  0  0
M  END
