
 OpenBabel02081817093D

 27 28  0  0  0  0  0  0  0  0999 V2000
   -0.1309   -0.0676   -0.0850 Fe  0  0  0  0  0  0  0  0  0  0  0  0
    1.6117   -0.0608   -0.2562 C   0  0  0  0  0  0  0  0  0  0  0  0
   -3.8316    2.9997    0.1948 H   0  0  0  0  0  0  0  0  0  0  0  0
   -2.5112    0.2560    0.1486 S   0  0  0  0  0  0  0  0  0  0  0  0
    0.0617    0.0328    1.8472 C   0  0  0  0  0  0  0  0  0  0  0  0
   -0.0925   -2.0363    0.1645 C   0  0  0  0  0  0  0  0  0  0  0  0
   -0.4180   -0.3614   -1.8175 C   0  0  0  0  0  0  0  0  0  0  0  0
    2.7668   -0.0880   -0.3654 O   0  0  0  0  0  0  0  0  0  0  0  0
    0.8942   -2.7469   -0.0064 O   0  0  0  0  0  0  0  0  0  0  0  0
    0.1997    0.0856    3.0104 N   0  0  0  0  0  0  0  0  0  0  0  0
    1.8997    4.1325   -0.4598 H   0  0  0  0  0  0  0  0  0  0  0  0
    1.9674    2.6294    0.4899 H   0  0  0  0  0  0  0  0  0  0  0  0
   -2.6769    5.2161    0.0019 H   0  0  0  0  0  0  0  0  0  0  0  0
    0.0115    3.1408   -0.2199 C   0  0  0  0  0  0  0  0  0  0  0  0
   -2.1065    4.2917   -0.0301 C   0  0  0  0  0  0  0  0  0  0  0  0
   -1.9764    1.9041    0.0297 C   0  0  0  0  0  0  0  0  0  0  0  0
    1.7872    2.5504   -1.2659 H   0  0  0  0  0  0  0  0  0  0  0  0
    1.5033    3.1185   -0.3734 C   0  0  0  0  0  0  0  0  0  0  0  0
   -0.6271    1.9530   -0.1176 N   0  0  0  0  0  0  0  0  0  0  0  0
   -0.7149    4.3313   -0.1789 C   0  0  0  0  0  0  0  0  0  0  0  0
   -2.7552    3.0695    0.0772 C   0  0  0  0  0  0  0  0  0  0  0  0
   -0.5993   -0.6012   -2.9373 O   0  0  0  0  0  0  0  0  0  0  0  0
   -0.1919    5.2784   -0.2632 H   0  0  0  0  0  0  0  0  0  0  0  0
   -1.3967   -2.6936    0.6097 C   0  0  0  0  0  0  0  0  0  0  0  0
   -2.1431   -2.5829   -0.1856 H   0  0  0  0  0  0  0  0  0  0  0  0
   -1.7874   -2.1832    1.4947 H   0  0  0  0  0  0  0  0  0  0  0  0
   -1.2328   -3.7565    0.8170 H   0  0  0  0  0  0  0  0  0  0  0  0
  1  4  1  0  0  0  0
  1  6  1  0  0  0  0
  1  5  1  0  0  0  0
  2  1  1  0  0  0  0
  5 10  3  0  0  0  0
  6 24  1  0  0  0  0
  7  1  1  0  0  0  0
  8  2  1  0  0  0  0
  9  6  2  0  0  0  0
 11 18  1  0  0  0  0
 14 20  2  0  0  0  0
 14 19  1  0  0  0  0
 15 13  1  0  0  0  0
 15 21  1  0  0  0  0
 16 21  2  0  0  0  0
 16  4  1  0  0  0  0
 17 18  1  0  0  0  0
 18 14  1  0  0  0  0
 18 12  1  0  0  0  0
 19  1  1  0  0  0  0
 19 16  1  0  0  0  0
 20 15  1  0  0  0  0
 21  3  1  0  0  0  0
 22  7  1  0  0  0  0
 23 20  1  0  0  0  0
 24 27  1  0  0  0  0
 24 26  1  0  0  0  0
 25 24  1  0  0  0  0
M  END
