C3H12P2
APtclcactv03221809003D 0   0.00000     0.00000
 
 17 16  0  0  0  0  0  0  0  0999 V2000
   -1.5754    0.0000   -0.0000 P   0  2  0  0  0  0  0  0  0  0  0  0
   -2.0488   -1.1593   -0.6697 H   0  0  0  0  0  0  0  0  0  0  0  0
   -2.0488    1.1596   -0.6691 H   0  0  0  0  0  0  0  0  0  0  0  0
   -2.0488   -0.0003    1.3388 H   0  0  0  0  0  0  0  0  0  0  0  0
    0.3481   -0.0000    0.0000 P   0  2  0  0  0  0  0  0  0  0  0  0
    0.9558    0.0004   -1.7187 C   0  0  0  0  0  0  0  0  0  0  0  0
    0.9558    1.4883    0.8598 C   0  0  0  0  0  0  0  0  0  0  0  0
    0.9558   -1.4887    0.8590 C   0  0  0  0  0  0  0  0  0  0  0  0
    0.5924    0.8906   -2.2323 H   0  0  0  0  0  0  0  0  0  0  0  0
    2.0458    0.0004   -1.7187 H   0  0  0  0  0  0  0  0  0  0  0  0
    0.5924   -0.8894   -2.2328 H   0  0  0  0  0  0  0  0  0  0  0  0
    0.5924    1.4880    1.8874 H   0  0  0  0  0  0  0  0  0  0  0  0
    2.0458    1.4882    0.8598 H   0  0  0  0  0  0  0  0  0  0  0  0
    0.5924    2.3784    0.3462 H   0  0  0  0  0  0  0  0  0  0  0  0
    0.5924   -2.3785    0.3449 H   0  0  0  0  0  0  0  0  0  0  0  0
    2.0458   -1.4887    0.8590 H   0  0  0  0  0  0  0  0  0  0  0  0
    0.5924   -1.4890    1.8866 H   0  0  0  0  0  0  0  0  0  0  0  0
  1  2  1  0  0  0  0
  1  3  1  0  0  0  0
  1  4  1  0  0  0  0
  1  5  2  0  0  0  0
  5  6  1  0  0  0  0
  5  7  1  0  0  0  0
  5  8  1  0  0  0  0
  6  9  1  0  0  0  0
  6 10  1  0  0  0  0
  6 11  1  0  0  0  0
  7 12  1  0  0  0  0
  7 13  1  0  0  0  0
  7 14  1  0  0  0  0
  8 15  1  0  0  0  0
  8 16  1  0  0  0  0
  8 17  1  0  0  0  0
M  CHG  2   1   2   5   2
M  END
$$$$
