Unnamed Molecule
## MASM0.103221815553D

 17 16  0  0  0  0  0  0  0  0999 V2000
    0.6716   -1.4890    1.8866   H 0  0  0  0  0  1  0  0  0  0  0  0
    0.6716    1.4880    1.8874   H 0  0  0  0  0  1  0  0  0  0  0  0
    0.6716   -0.8894   -2.2328   H 0  0  0  0  0  1  0  0  0  0  0  0
    2.1250   -1.4887    0.8590   H 0  0  0  0  0  1  0  0  0  0  0  0
   -1.7527    0.0000   -0.0000   P 0  0  0  0  0  4  0  0  0  0  0  0
   -2.2260   -0.0003    1.3388   H 0  0  0  0  0  1  0  0  0  0  0  0
    1.0350   -1.4887    0.8590   C 0  0  0  0  0  4  0  0  0  0  0  0
    0.6716    0.8906   -2.2323   H 0  0  0  0  0  1  0  0  0  0  0  0
    0.6716   -2.3785    0.3449   H 0  0  0  0  0  1  0  0  0  0  0  0
    2.1250    1.4882    0.8598   H 0  0  0  0  0  1  0  0  0  0  0  0
    1.0350    1.4883    0.8598   C 0  0  0  0  0  4  0  0  0  0  0  0
   -2.2260   -1.1593   -0.6697   H 0  0  0  0  0  1  0  0  0  0  0  0
   -2.2260    1.1596   -0.6691   H 0  0  0  0  0  1  0  0  0  0  0  0
    0.6716    2.3784    0.3462   H 0  0  0  0  0  1  0  0  0  0  0  0
    2.1250    0.0004   -1.7187   H 0  0  0  0  0  1  0  0  0  0  0  0
    1.0350    0.0004   -1.7187   C 0  0  0  0  0  4  0  0  0  0  0  0
    0.4273   -0.0000    0.0000   P 0  0  0  0  0  4  0  0  0  0  0  0
  5 12  1  0  0  0  0
  5 13  1  0  0  0  0
  5  6  1  0  0  0  0
  5 17  1  0  0  0  0
 16 17  1  0  0  0  0
 11 17  1  0  0  0  0
  7 17  1  0  0  0  0
  8 16  1  0  0  0  0
 15 16  1  0  0  0  0
  3 16  1  0  0  0  0
  2 11  1  0  0  0  0
 10 11  1  0  0  0  0
 11 14  1  0  0  0  0
  7  9  1  0  0  0  0
  4  7  1  0  0  0  0
  1  7  1  0  0  0  0
M END