Unnamed Molecule
## MASM0.103221815563D

 17 16  0  0  0  0  0  0  0  0999 V2000
    0.5710   -1.3829    1.8546   H 0  0  0  0  0  1  0  0  0  0  0  0
   -1.3910    1.3737    1.3622   H 0  0  0  0  0  1  0  0  0  0  0  0
   -2.1645   -0.2083   -0.9743   H 0  0  0  0  0  1  0  0  0  0  0  0
    0.1034   -2.3391    0.4418   H 0  0  0  0  0  1  0  0  0  0  0  0
    0.0001    0.0000    0.0000   P 0  0  0  0  0  4  0  0  0  0  0  0
   -0.3765    1.4296    0.9573   C 0  0  0  0  0  4  0  0  0  0  0  0
    2.3666    0.2105    0.1818   H 0  0  0  0  0  1  0  0  0  0  0  0
   -1.0790    0.7549   -1.9858   H 0  0  0  0  0  1  0  0  0  0  0  0
   -1.1363   -1.5405    1.4189   H 0  0  0  0  0  1  0  0  0  0  0  0
    0.3161    1.5317    1.7977   H 0  0  0  0  0  1  0  0  0  0  0  0
    1.7450    1.0160   -1.2653   H 0  0  0  0  0  1  0  0  0  0  0  0
    1.6391    0.1310   -0.6311   C 0  0  0  0  0  4  0  0  0  0  0  0
   -1.1367   -0.1255   -1.3393   C 0  0  0  0  0  4  0  0  0  0  0  0
   -0.3058    2.3369    0.3507   H 0  0  0  0  0  1  0  0  0  0  0  0
   -0.9250   -1.0070   -1.9514   H 0  0  0  0  0  1  0  0  0  0  0  0
    1.8990   -0.7460   -1.2309   H 0  0  0  0  0  1  0  0  0  0  0  0
   -0.1259   -1.4351    1.0132   C 0  0  0  0  0  4  0  0  0  0  0  0
  5 12  1  0  0  0  0
  5 13  1  0  0  0  0
  5  6  1  0  0  0  0
  5 17  1  0  0  0  0
 12 16  1  0  0  0  0
 11 12  1  0  0  0  0
  7 12  1  0  0  0  0
  8 13  1  0  0  0  0
 13 15  1  0  0  0  0
  3 13  1  0  0  0  0
  2  6  1  0  0  0  0
  6 10  1  0  0  0  0
  6 14  1  0  0  0  0
  9 17  1  0  0  0  0
  4 17  1  0  0  0  0
  1 17  1  0  0  0  0
M END