
 OpenBabel03081910253D

 24 25  0  0  0  0  0  0  0  0999 V2000
    1.0756    0.0289    0.0949 C   0  0  0  0  0  0  0  0  0  0  0  0
    2.5159   -0.0084    0.0946 N   0  0  0  0  0  0  0  0  0  0  0  0
    3.3540    1.0752    0.0930 C   0  0  0  0  0  0  0  0  0  0  0  0
    4.6209    0.7101    0.0930 N   0  0  0  0  0  0  0  0  0  0  0  0
    4.5812   -0.6516    0.0953 C   0  0  0  0  0  0  0  0  0  0  0  0
    3.3038   -1.1235    0.0966 C   0  0  0  0  0  0  0  0  0  0  0  0
    2.9848   -2.5082    0.0998 C   0  0  0  0  0  0  0  0  0  0  0  0
    1.8296   -2.9231    0.0998 O   0  0  0  0  0  0  0  0  0  0  0  0
    4.1194   -3.3248    0.1032 N   0  0  0  0  0  0  0  0  0  0  0  0
    5.4566   -2.8750    0.1011 C   0  0  0  0  0  0  0  0  0  0  0  0
    6.3952   -3.6772    0.1034 O   0  0  0  0  0  0  0  0  0  0  0  0
    5.6654   -1.4954    0.0968 N   0  0  0  0  0  0  0  0  0  0  0  0
    7.0110   -0.9514    0.0954 C   0  0  0  0  0  0  0  0  0  0  0  0
    3.9270   -4.7616    0.1094 C   0  0  0  0  0  0  0  0  0  0  0  0
    0.7376    1.0683    0.0952 H   0  0  0  0  0  0  0  0  0  0  0  0
    0.7144   -0.4760    0.9943 H   0  0  0  0  0  0  0  0  0  0  0  0
    0.7143   -0.4755   -0.8048 H   0  0  0  0  0  0  0  0  0  0  0  0
    2.9949    2.0969    0.0920 H   0  0  0  0  0  0  0  0  0  0  0  0
    7.7693   -1.7389    0.0942 H   0  0  0  0  0  0  0  0  0  0  0  0
    7.1485   -0.3358    0.9899 H   0  0  0  0  0  0  0  0  0  0  0  0
    7.1467   -0.3350   -0.7990 H   0  0  0  0  0  0  0  0  0  0  0  0
    2.8716   -5.0449    0.1114 H   0  0  0  0  0  0  0  0  0  0  0  0
    4.4084   -5.1808    0.9991 H   0  0  0  0  0  0  0  0  0  0  0  0
    4.4074   -5.1888   -0.7770 H   0  0  0  0  0  0  0  0  0  0  0  0
  1  2  1  0  0  0  0
  1 15  1  0  0  0  0
  1 16  1  0  0  0  0
  1 17  1  0  0  0  0
  2  3  1  0  0  0  0
  2  6  1  0  0  0  0
  3  4  2  0  0  0  0
  3 18  1  0  0  0  0
  4  5  1  0  0  0  0
  5  6  2  0  0  0  0
  5 12  1  0  0  0  0
  6  7  1  0  0  0  0
  7  8  2  0  0  0  0
  7  9  1  0  0  0  0
  9 10  1  0  0  0  0
  9 14  1  0  0  0  0
 10 11  2  0  0  0  0
 10 12  1  0  0  0  0
 12 13  1  0  0  0  0
 13 19  1  0  0  0  0
 13 20  1  0  0  0  0
 13 21  1  0  0  0  0
 14 22  1  0  0  0  0
 14 23  1  0  0  0  0
 14 24  1  0  0  0  0
M  END
