
 OpenBabel03081910243D

 17 16  0  0  1  0  0  0  0  0999 V2000
    0.9327    0.0013   -0.0642 C   0  0  0  0  0  0  0  0  0  0  0  0
    2.4745   -0.0057   -0.0643 C   0  0  0  0  0  0  0  0  0  0  0  0
    2.9544   -0.4004    1.3437 C   0  0  0  0  0  0  0  0  0  0  0  0
    2.9553   -1.0570   -1.0797 C   0  0  0  0  0  0  0  0  0  0  0  0
    2.9650    1.4092   -0.4499 C   0  0  3  0  0  0  0  0  0  0  0  0
    2.4886    2.3096    0.4544 F   0  0  0  0  0  0  0  0  0  0  0  0
    4.7370    1.5743   -0.5154 Cl  0  0  0  0  0  0  0  0  0  0  0  0
    0.5307   -0.9852    0.1936 H   0  0  0  0  0  0  0  0  0  0  0  0
    0.5391    0.2728   -1.0503 H   0  0  0  0  0  0  0  0  0  0  0  0
    0.5376    0.7198    0.6627 H   0  0  0  0  0  0  0  0  0  0  0  0
    2.5409   -1.3708    1.6419 H   0  0  0  0  0  0  0  0  0  0  0  0
    2.6397    0.3365    2.0909 H   0  0  0  0  0  0  0  0  0  0  0  0
    4.0449   -0.4848    1.3941 H   0  0  0  0  0  0  0  0  0  0  0  0
    2.5318   -2.0428   -0.8554 H   0  0  0  0  0  0  0  0  0  0  0  0
    4.0448   -1.1649   -1.0720 H   0  0  0  0  0  0  0  0  0  0  0  0
    2.6508   -0.7895   -2.0978 H   0  0  0  0  0  0  0  0  0  0  0  0
    2.5811    1.7010   -1.4328 H   0  0  0  0  0  0  0  0  0  0  0  0
  1  2  1  0  0  0  0
  1  8  1  0  0  0  0
  1  9  1  0  0  0  0
  1 10  1  0  0  0  0
  2  3  1  0  0  0  0
  2  4  1  0  0  0  0
  2  5  1  0  0  0  0
  3 11  1  0  0  0  0
  3 12  1  0  0  0  0
  3 13  1  0  0  0  0
  4 14  1  0  0  0  0
  4 15  1  0  0  0  0
  4 16  1  0  0  0  0
  5  6  1  0  0  0  0
  5  7  1  0  0  0  0
  5 17  1  0  0  0  0
M  END
