EntryWithCollCode61.pdb
 OpenBabel11171610393D

  6  4  0  0  0  0  0  0  0  0999 V2000
   -0.0000    1.4070    1.6080 Tc  0  0  0  0  0  0  0  0  0  0  0  0
    0.6130    0.1430    2.5840 O   0  0  0  0  0  0  0  0  0  0  0  0
    1.2640    2.0210    0.6330 O   0  0  0  0  0  0  0  0  0  0  0  0
   -0.6130    2.6720    2.5840 O   0  0  0  0  0  0  0  0  0  0  0  0
   -1.2640    0.7940    0.6330 O   0  0  0  0  0  0  0  0  0  0  0  0
   -0.0000    1.4070    8.0420 K   0  0  0  0  0 15  0  0  0  0  0  0
  1  2  1  0  0  0  0
  1  4  1  0  0  0  0
  3  1  1  0  0  0  0
  5  1  1  0  0  0  0
M  END
