C3Br2Cl3F3
APtclcactv10031709193D 0   0.00000     0.00000
 
 11 10  0  0  0  0  0  0  0  0999 V2000
   -0.0199   -0.5716   -0.3628 C   0  0  2  0  0  0  0  0  0  0  0  0
   -0.6337   -2.2520   -0.1385 Cl  0  0  0  0  0  0  0  0  0  0  0  0
    0.0262   -0.2703   -1.7281 F   0  0  0  0  0  0  0  0  0  0  0  0
    1.3852   -0.4583    0.2322 C   0  0  2  0  0  0  0  0  0  0  0  0
    2.1337    1.3106   -0.1872 Br  0  0  0  0  0  0  0  0  0  0  0  0
    2.4408   -1.7397   -0.4710 Cl  0  0  0  0  0  0  0  0  0  0  0  0
    1.3181   -0.6191    1.6203 F   0  0  0  0  0  0  0  0  0  0  0  0
   -0.9543    0.4114    0.3452 C   0  0  2  0  0  0  0  0  0  0  0  0
   -1.1412   -0.0741    2.0716 Cl  0  0  0  0  0  0  0  0  0  0  0  0
   -2.7124    0.3937   -0.5345 Br  0  0  0  0  0  0  0  0  0  0  0  0
   -0.4128    1.6996    0.2791 F   0  0  0  0  0  0  0  0  0  0  0  0
  1  2  1  0  0  0  0
  1  3  1  0  0  0  0
  1  4  1  0  0  0  0
  4  5  1  0  0  0  0
  4  6  1  0  0  0  0
  4  7  1  0  0  0  0
  1  8  1  0  0  0  0
  8  9  1  0  0  0  0
  8 10  1  0  0  0  0
  8 11  1  0  0  0  0
M  END
$$$$
