C28H16
APtclcactv05231711523D 0   0.00000     0.00000
 
 44 48  0  0  0  0  0  0  0  0999 V2000
   -3.2817   -3.4492   -0.6075 C   0  0  0  0  0  0  0  0  0  0  0  0
   -4.3697   -2.6761   -0.2404 C   0  0  0  0  0  0  0  0  0  0  0  0
   -4.2192   -1.3286   -0.0066 C   0  0  0  0  0  0  0  0  0  0  0  0
   -2.9564   -0.7140   -0.1247 C   0  0  0  0  0  0  0  0  0  0  0  0
   -2.9342    0.7374    0.1517 C   0  0  0  0  0  0  0  0  0  0  0  0
   -1.8223    1.5030    0.5253 C   0  0  0  0  0  0  0  0  0  0  0  0
   -0.5083    0.9549    0.7386 C   0  0  0  0  0  0  0  0  0  0  0  0
    0.6969    1.0311    0.6560 C   0  0  0  0  0  0  0  0  0  0  0  0
    1.9120    1.5377    0.0755 C   0  0  0  0  0  0  0  0  0  0  0  0
    1.9888    2.8981   -0.2361 C   0  0  0  0  0  0  0  0  0  0  0  0
    3.1486    3.4269   -0.7623 C   0  0  0  0  0  0  0  0  0  0  0  0
    4.2479    2.6148   -0.9833 C   0  0  0  0  0  0  0  0  0  0  0  0
    4.1883    1.2671   -0.6963 C   0  0  0  0  0  0  0  0  0  0  0  0
    3.0178    0.7055   -0.1791 C   0  0  0  0  0  0  0  0  0  0  0  0
    3.0046   -0.7400    0.1245 C   0  0  0  0  0  0  0  0  0  0  0  0
    1.8851   -1.5659   -0.0633 C   0  0  0  0  0  0  0  0  0  0  0  0
    0.6668   -1.0704   -0.6469 C   0  0  0  0  0  0  0  0  0  0  0  0
   -0.5359   -0.9759   -0.7255 C   0  0  0  0  0  0  0  0  0  0  0  0
   -1.8624   -1.4964   -0.5247 C   0  0  0  0  0  0  0  0  0  0  0  0
   -2.0418   -2.8685   -0.7518 C   0  0  0  0  0  0  0  0  0  0  0  0
    1.9499   -2.9144    0.3023 C   0  0  0  0  0  0  0  0  0  0  0  0
    3.1178   -3.4402    0.8130 C   0  0  0  0  0  0  0  0  0  0  0  0
    4.2340   -2.6364    0.9688 C   0  0  0  0  0  0  0  0  0  0  0  0
    4.1869   -1.3004    0.6334 C   0  0  0  0  0  0  0  0  0  0  0  0
   -1.9682    2.8837    0.7272 C   0  0  0  0  0  0  0  0  0  0  0  0
   -3.1960    3.4891    0.5832 C   0  0  0  0  0  0  0  0  0  0  0  0
   -4.3025    2.7348    0.2326 C   0  0  0  0  0  0  0  0  0  0  0  0
   -4.1837    1.3819    0.0164 C   0  0  0  0  0  0  0  0  0  0  0  0
   -3.4046   -4.5088   -0.7764 H   0  0  0  0  0  0  0  0  0  0  0  0
   -5.3427   -3.1334   -0.1371 H   0  0  0  0  0  0  0  0  0  0  0  0
   -5.0783   -0.7353    0.2699 H   0  0  0  0  0  0  0  0  0  0  0  0
    1.1358    3.5379   -0.0642 H   0  0  0  0  0  0  0  0  0  0  0  0
    3.1997    4.4786   -1.0027 H   0  0  0  0  0  0  0  0  0  0  0  0
    5.1571    3.0390   -1.3830 H   0  0  0  0  0  0  0  0  0  0  0  0
    5.0511    0.6420   -0.8729 H   0  0  0  0  0  0  0  0  0  0  0  0
   -1.1982   -3.4762   -1.0439 H   0  0  0  0  0  0  0  0  0  0  0  0
    1.0819   -3.5461    0.1846 H   0  0  0  0  0  0  0  0  0  0  0  0
    3.1618   -4.4825    1.0927 H   0  0  0  0  0  0  0  0  0  0  0  0
    5.1490   -3.0595    1.3563 H   0  0  0  0  0  0  0  0  0  0  0  0
    5.0629   -0.6821    0.7629 H   0  0  0  0  0  0  0  0  0  0  0  0
   -1.1080    3.4779    0.9982 H   0  0  0  0  0  0  0  0  0  0  0  0
   -3.2961    4.5524    0.7441 H   0  0  0  0  0  0  0  0  0  0  0  0
   -5.2657    3.2120    0.1285 H   0  0  0  0  0  0  0  0  0  0  0  0
   -5.0548    0.8064   -0.2601 H   0  0  0  0  0  0  0  0  0  0  0  0
  1  2  2  0  0  0  0
  2  3  1  0  0  0  0
  3  4  2  0  0  0  0
  4  5  1  0  0  0  0
  5  6  2  0  0  0  0
  6  7  1  0  0  0  0
  7  8  3  0  0  0  0
  8  9  1  0  0  0  0
  9 10  2  0  0  0  0
 10 11  1  0  0  0  0
 11 12  2  0  0  0  0
 12 13  1  0  0  0  0
 13 14  2  0  0  0  0
  9 14  1  0  0  0  0
 14 15  1  0  0  0  0
 15 16  1  0  0  0  0
 16 17  1  0  0  0  0
 17 18  3  0  0  0  0
 18 19  1  0  0  0  0
  4 19  1  0  0  0  0
 19 20  2  0  0  0  0
  1 20  1  0  0  0  0
 16 21  2  0  0  0  0
 21 22  1  0  0  0  0
 22 23  2  0  0  0  0
 23 24  1  0  0  0  0
 15 24  2  0  0  0  0
  6 25  1  0  0  0  0
 25 26  2  0  0  0  0
 26 27  1  0  0  0  0
 27 28  2  0  0  0  0
  5 28  1  0  0  0  0
  1 29  1  0  0  0  0
  2 30  1  0  0  0  0
  3 31  1  0  0  0  0
 10 32  1  0  0  0  0
 11 33  1  0  0  0  0
 12 34  1  0  0  0  0
 13 35  1  0  0  0  0
 20 36  1  0  0  0  0
 21 37  1  0  0  0  0
 22 38  1  0  0  0  0
 23 39  1  0  0  0  0
 24 40  1  0  0  0  0
 25 41  1  0  0  0  0
 26 42  1  0  0  0  0
 27 43  1  0  0  0  0
 28 44  1  0  0  0  0
M  END
$$$$
