
 OpenBabel02081817103D

 13 12  0  0  0  0  0  0  0  0999 V2000
    4.2438    3.6542    1.0107 Fe  0  0  0  0  0  0  0  0  0  0  0  0
    8.3319    3.6546    3.4607 S   0  0  0  0  0  0  0  0  0  0  0  0
    4.2737    7.7294   -1.4616 S   0  0  0  0  0  0  0  0  0  0  0  0
    0.1570    3.6570    3.4625 S   0  0  0  0  0  0  0  0  0  0  0  0
    5.8879    3.6550    2.0764 N   0  0  0  0  0  0  0  0  0  0  0  0
    4.2472    5.2972   -0.0570 N   0  0  0  0  0  0  0  0  0  0  0  0
    2.5993    3.6535    2.0753 N   0  0  0  0  0  0  0  0  0  0  0  0
    6.9221    3.6549    2.6576 C   0  0  0  0  0  0  0  0  0  0  0  0
    4.2585    6.3265   -0.6466 C   0  0  0  0  0  0  0  0  0  0  0  0
    1.5657    3.6549    2.6577 C   0  0  0  0  0  0  0  0  0  0  0  0
    4.2479    2.0116   -0.0576 N   0  0  0  0  0  0  0  0  0  0  0  0
    4.2593    0.9824   -0.6475 C   0  0  0  0  0  0  0  0  0  0  0  0
    4.2750   -0.4204   -1.4626 S   0  0  0  0  0  0  0  0  0  0  0  0
  1  7  1  0  0  0  0
  1  5  1  0  0  0  0
  3  9  2  0  0  0  0
  5  8  2  0  0  0  0
  6  1  1  0  0  0  0
  7 10  2  0  0  0  0
  8  2  2  0  0  0  0
  9  6  2  0  0  0  0
 10  4  2  0  0  0  0
 11  1  1  0  0  0  0
 12 11  2  0  0  0  0
 13 12  2  0  0  0  0
M  END
