
 OpenBabel02081817133D

 11 10  0  0  0  0  0  0  0  0999 V2000
    0.0033    0.0001   -0.0000 Fe  0  0  0  0  0  0  0  0  0  0  0  0
    1.8118   -0.0003    0.0002 C   0  0  0  0  0  0  0  0  0  0  0  0
   -0.9160    1.5570    0.0001 C   0  0  0  0  0  0  0  0  0  0  0  0
   -0.9160   -1.5568   -0.0002 C   0  0  0  0  0  0  0  0  0  0  0  0
    0.0121    0.0001   -1.8131 C   0  0  0  0  0  0  0  0  0  0  0  0
    0.0126    0.0002    1.8130 C   0  0  0  0  0  0  0  0  0  0  0  0
    2.9649   -0.0008    0.0005 O   0  0  0  0  0  0  0  0  0  0  0  0
   -1.5070    2.5470    0.0001 O   0  0  0  0  0  0  0  0  0  0  0  0
   -1.5068   -2.5469   -0.0005 O   0  0  0  0  0  0  0  0  0  0  0  0
    0.0201    0.0000   -2.9611 O   0  0  0  0  0  0  0  0  0  0  0  0
    0.0210    0.0004    2.9611 O   0  0  0  0  0  0  0  0  0  0  0  0
  1  3  1  0  0  0  0
  1  2  1  0  0  0  0
  1  6  1  0  0  0  0
  2  7  1  0  0  0  0
  3  8  1  0  0  0  0
  4  1  1  0  0  0  0
  5  1  1  0  0  0  0
  6 11  1  0  0  0  0
  9  4  1  0  0  0  0
 10  5  1  0  0  0  0
M  END
