
 OpenBabel02081817123D

 35 36  0  0  0  0  0  0  0  0999 V2000
    7.0090    4.6959    6.6660 Fe  0  0  0  0  0  0  0  0  0  0  0  0
    6.8045    6.0134    4.8456 S   0  0  0  0  0  0  0  0  0  0  0  0
    7.3240    5.8023    7.9850 N   0  0  0  0  0  0  0  0  0  0  0  0
    8.8668    3.4443    6.8610 S   0  0  0  0  0  0  0  0  0  0  0  0
    5.5930    3.4004    6.2541 N   0  0  0  0  0  0  0  0  0  0  0  0
    7.8519    7.4332    5.0534 C   0  0  0  0  0  0  0  0  0  0  0  0
    9.0036    2.3312    5.4847 C   0  0  0  0  0  0  0  0  0  0  0  0
    9.1368    7.3222    5.6125 C   0  0  0  0  0  0  0  0  0  0  0  0
    9.4816    6.3499    5.9555 H   0  0  0  0  0  0  0  0  0  0  0  0
    9.9535    8.4425    5.7350 C   0  0  0  0  0  0  0  0  0  0  0  0
   10.9417    8.3306    6.1773 H   0  0  0  0  0  0  0  0  0  0  0  0
    7.9778    6.6273    8.5348 O   0  0  0  0  0  0  0  0  0  0  0  0
    9.3231    0.4883    3.3451 C   0  0  0  0  0  0  0  0  0  0  0  0
    7.4167    8.6954    4.6210 C   0  0  0  0  0  0  0  0  0  0  0  0
    6.4246    8.8049    4.1906 H   0  0  0  0  0  0  0  0  0  0  0  0
    5.1634    3.8848    7.3509 O   0  0  0  0  0  0  0  0  0  0  0  0
    8.2240    2.4364    4.3218 C   0  0  0  0  0  0  0  0  0  0  0  0
    7.4956    3.2371    4.2372 H   0  0  0  0  0  0  0  0  0  0  0  0
    9.5295    9.7084    5.3007 C   0  0  0  0  0  0  0  0  0  0  0  0
    8.2485    9.8099    4.7431 C   0  0  0  0  0  0  0  0  0  0  0  0
    7.8887   10.7785    4.4017 H   0  0  0  0  0  0  0  0  0  0  0  0
   10.1051    0.3957    4.5054 C   0  0  0  0  0  0  0  0  0  0  0  0
   10.8479   -0.3953    4.5900 H   0  0  0  0  0  0  0  0  0  0  0  0
    9.9523    1.2952    5.5586 C   0  0  0  0  0  0  0  0  0  0  0  0
   10.5720    1.1971    6.4466 H   0  0  0  0  0  0  0  0  0  0  0  0
    8.3863    1.5291    3.2760 C   0  0  0  0  0  0  0  0  0  0  0  0
    7.7696    1.6354    2.3853 H   0  0  0  0  0  0  0  0  0  0  0  0
   10.4301   10.9145    5.4250 C   0  0  0  0  0  0  0  0  0  0  0  0
   10.8050   11.0248    6.4491 H   0  0  0  0  0  0  0  0  0  0  0  0
    9.9006   11.8319    5.1517 H   0  0  0  0  0  0  0  0  0  0  0  0
   11.3048   10.8208    4.7692 H   0  0  0  0  0  0  0  0  0  0  0  0
    9.4653   -0.5143    2.2248 C   0  0  0  0  0  0  0  0  0  0  0  0
    8.8176   -1.3846    2.3954 H   0  0  0  0  0  0  0  0  0  0  0  0
   10.4938   -0.8817    2.1499 H   0  0  0  0  0  0  0  0  0  0  0  0
    9.1805   -0.0773    1.2625 H   0  0  0  0  0  0  0  0  0  0  0  0
  1  3  2  0  0  0  0
  1  4  1  0  0  0  0
  2  6  1  0  0  0  0
  2  1  1  0  0  0  0
  3 12  1  0  0  0  0
  5  1  1  0  0  0  0
  5 16  1  0  0  0  0
  6  8  2  0  0  0  0
  7 24  1  0  0  0  0
  7  4  1  0  0  0  0
  8 10  1  0  0  0  0
  8  9  1  0  0  0  0
 10 11  1  0  0  0  0
 13 22  1  0  0  0  0
 14 20  2  0  0  0  0
 14  6  1  0  0  0  0
 15 14  1  0  0  0  0
 17  7  2  0  0  0  0
 18 17  1  0  0  0  0
 19 28  1  0  0  0  0
 19 10  2  0  0  0  0
 20 19  1  0  0  0  0
 21 20  1  0  0  0  0
 22 23  1  0  0  0  0
 22 24  2  0  0  0  0
 24 25  1  0  0  0  0
 26 13  2  0  0  0  0
 26 17  1  0  0  0  0
 27 26  1  0  0  0  0
 28 29  1  0  0  0  0
 30 28  1  0  0  0  0
 31 28  1  0  0  0  0
 32 33  1  0  0  0  0
 32 13  1  0  0  0  0
 34 32  1  0  0  0  0
 35 32  1  0  0  0  0
M  END
