
 OpenBabel02081817163D

 51 55  0  0  0  0  0  0  0  0999 V2000
    2.0876    2.8884    5.2659 Fe  0  0  1  0  0  0  0  0  0  0  0  0
    3.1140    4.5390    5.1069 N   0  0  0  0  0  0  0  0  0  0  0  0
    2.2679    2.4318    3.3150 N   0  0  0  0  0  0  0  0  0  0  0  0
    1.6092    1.1993    3.0068 C   0  0  0  0  0  0  0  0  0  0  0  0
    2.9017    3.1885    2.4076 C   0  0  0  0  0  0  0  0  0  0  0  0
    0.6593    2.3352    8.1432 C   0  0  0  0  0  0  0  0  0  0  0  0
    2.3608    0.0034    2.9926 C   0  0  0  0  0  0  0  0  0  0  0  0
    1.2633    1.2627    5.8424 C   0  0  0  0  0  0  0  0  0  0  0  0
    1.0293    0.2602    5.5092 H   0  0  0  0  0  0  0  0  0  0  0  0
    3.7172    5.0238    4.0089 C   0  0  0  0  0  0  0  0  0  0  0  0
    3.1351    5.1448    6.4016 C   0  0  0  0  0  0  0  0  0  0  0  0
    3.5848    4.3629    2.7807 C   0  0  0  0  0  0  0  0  0  0  0  0
    4.0821    4.8588    1.9622 H   0  0  0  0  0  0  0  0  0  0  0  0
    4.0958    4.7239    7.3510 C   0  0  0  0  0  0  0  0  0  0  0  0
    1.2027    2.1208    6.8137 C   0  0  0  0  0  0  0  0  0  0  0  0
    2.9579    2.9359    0.8585 C   0  0  0  0  0  0  0  0  0  0  0  0
   -0.4297   -0.0535    2.6850 C   0  0  0  0  0  0  0  0  0  0  0  0
   -1.5107   -0.0835    2.5670 H   0  0  0  0  0  0  0  0  0  0  0  0
    0.2049    1.1798    2.8672 C   0  0  0  0  0  0  0  0  0  0  0  0
    4.5969    6.3145    3.9287 C   0  0  0  0  0  0  0  0  0  0  0  0
    0.5111    3.6284   10.1959 C   0  0  0  0  0  0  0  0  0  0  0  0
    0.8272    4.4842   10.7871 H   0  0  0  0  0  0  0  0  0  0  0  0
    4.0912    5.3295    8.6118 C   0  0  0  0  0  0  0  0  0  0  0  0
    4.8271    5.0261    9.3522 H   0  0  0  0  0  0  0  0  0  0  0  0
    2.1825    6.6774    8.0074 C   0  0  0  0  0  0  0  0  0  0  0  0
    1.4388    7.4207    8.2804 H   0  0  0  0  0  0  0  0  0  0  0  0
   -0.4326    2.7331   10.7061 C   0  0  0  0  0  0  0  0  0  0  0  0
   -0.8558    2.8875   11.6950 H   0  0  0  0  0  0  0  0  0  0  0  0
    0.2961   -1.2427    2.6586 C   0  0  0  0  0  0  0  0  0  0  0  0
   -0.2135   -2.1928    2.5200 H   0  0  0  0  0  0  0  0  0  0  0  0
    2.1476    6.1034    6.7338 C   0  0  0  0  0  0  0  0  0  0  0  0
    3.1551    6.3094    8.9379 C   0  0  0  0  0  0  0  0  0  0  0  0
    3.1670    6.7681    9.9230 H   0  0  0  0  0  0  0  0  0  0  0  0
   -0.2928    1.4353    8.6673 C   0  0  0  0  0  0  0  0  0  0  0  0
   -0.6049    0.5849    8.0664 H   0  0  0  0  0  0  0  0  0  0  0  0
   -0.8336    1.6359    9.9348 C   0  0  0  0  0  0  0  0  0  0  0  0
   -1.5694    0.9370   10.3245 H   0  0  0  0  0  0  0  0  0  0  0  0
    1.6814   -1.2065    2.8196 C   0  0  0  0  0  0  0  0  0  0  0  0
    2.2429   -2.1372    2.8058 H   0  0  0  0  0  0  0  0  0  0  0  0
    1.0471    3.4336    8.9248 C   0  0  0  0  0  0  0  0  0  0  0  0
    1.7743    4.1276    8.5242 H   0  0  0  0  0  0  0  0  0  0  0  0
    3.5366    3.7058    0.3923 H   0  0  0  0  0  0  0  0  0  0  0  0
    3.4102    1.9850    0.6683 H   0  0  0  0  0  0  0  0  0  0  0  0
    4.9426    6.4486    2.9250 H   0  0  0  0  0  0  0  0  0  0  0  0
    5.4363    6.2154    4.5848 H   0  0  0  0  0  0  0  0  0  0  0  0
    4.0136    7.1624    4.2213 H   0  0  0  0  0  0  0  0  0  0  0  0
    1.4203    6.3715    6.0525 H   0  0  0  0  0  0  0  0  0  0  0  0
    3.3862    0.0222    3.1073 H   0  0  0  0  0  0  0  0  0  0  0  0
    4.7823    3.9890    7.1192 H   0  0  0  0  0  0  0  0  0  0  0  0
    1.9651    2.9448    0.4594 H   0  0  0  0  0  0  0  0  0  0  0  0
   -0.3411    2.0550    2.8988 H   0  0  0  0  0  0  0  0  0  0  0  0
  1  8  1  1  0  0  0
  1 15  1  0  0  0  0
  1  2  1  0  0  0  0
  1  3  1  0  0  0  0
  2 11  1  0  0  0  0
  4  3  1  0  0  0  0
  5 12  1  0  0  0  0
  5  3  2  0  0  0  0
  6 34  2  0  0  0  0
  6 40  1  0  0  0  0
  7  4  1  0  0  0  0
  7 48  1  0  0  0  0
  8 15  2  0  0  0  0
  9  8  1  0  0  0  0
 10  2  2  0  0  0  0
 11 31  2  0  0  0  0
 11 14  1  0  0  0  0
 12 10  1  0  0  0  0
 13 12  1  0  0  0  0
 14 23  2  0  0  0  0
 15  6  1  0  0  0  0
 16  5  1  0  0  0  0
 17 19  1  0  0  0  0
 18 17  1  0  0  0  0
 19 51  1  0  0  0  0
 19  4  2  0  0  0  0
 20 10  1  0  0  0  0
 20 46  1  0  0  0  0
 20 45  1  0  0  0  0
 21 27  1  0  0  0  0
 21 22  1  0  0  0  0
 23 32  1  0  0  0  0
 23 24  1  0  0  0  0
 25 26  1  0  0  0  0
 25 32  2  0  0  0  0
 27 28  1  0  0  0  0
 29 17  2  0  0  0  0
 29 38  1  0  0  0  0
 30 29  1  0  0  0  0
 31 25  1  0  0  0  0
 32 33  1  0  0  0  0
 34 36  1  0  0  0  0
 35 34  1  0  0  0  0
 36 37  1  0  0  0  0
 36 27  2  0  0  0  0
 38  7  2  0  0  0  0
 39 38  1  0  0  0  0
 40 21  2  0  0  0  0
 41 40  1  0  0  0  0
 42 16  1  0  0  0  0
 43 16  1  0  0  0  0
 44 20  1  0  0  0  0
 47 31  1  0  0  0  0
 49 14  1  0  0  0  0
 50 16  1  0  0  0  0
M  END
