13			
			
Fe	4.243812	3.654153	1.010658
S	8.331854	3.654597	3.460677
S	4.273748	7.729377	-1.461555
S	0.157031	3.656988	3.462511
N	5.887920	3.655033	2.076421
N	4.247185	5.297181	-0.056961
N	2.599265	3.653461	2.075336
C	6.922079	3.654912	2.657642
C	4.258528	6.326469	-0.646642
C	1.565721	3.654944	2.657680
N	4.247879	2.011627	-0.057607
C	4.259303	0.982448	-0.647457
S	4.274951	-0.420356	-1.462556
