33			
			
Fe	0.001774	-5.308596	-9.440816
S	0.960474	-6.877778	-10.808701
C	1.849308	-5.857930	-12.070388
C	3.092908	-5.166456	-11.515140
S	1.568092	-4.360764	-8.063228
S	-0.938831	-3.734487	-10.814356
S	-1.575138	-6.260169	-8.076535
C	0.545188	-3.458363	-6.813726
C	-1.837624	-4.751681	-12.071048
C	-0.560709	-7.146409	-6.808699
C	-0.117758	-2.202043	-7.375258
C	-3.100355	-5.409210	-11.517627
C	0.126602	-8.395555	-7.356545
H	-0.690524	-1.691636	-6.589728
H	-0.800093	-2.465824	-8.190118
H	0.630067	-1.504172	-7.766860
H	1.218891	-3.210568	-5.987109
H	-0.213707	-4.156671	-6.447250
H	-1.243529	-7.400348	-5.991547
H	0.183611	-6.437464	-6.433020
H	-0.606167	-9.103592	-7.758288
H	0.693361	-8.896913	-6.560897
H	0.818233	-8.124777	-8.161238
H	-3.610355	-5.977018	-12.307001
H	-3.795659	-4.658491	-11.126929
H	-2.844040	-6.095367	-10.703569
H	-2.076943	-4.076075	-12.898580
H	-1.140249	-5.513336	-12.433635
H	2.110277	-6.538698	-12.887066
H	1.139597	-5.115775	-12.448910
H	3.803284	-5.897263	-11.113993
H	2.815724	-4.479646	-10.708517
H	3.594282	-4.593820	-12.306569
