11			
			
Fe	0.003330	0.000060	-0.000010
C	1.811820	-0.000280	0.000170
C	-0.916040	1.556960	0.000060
C	-0.916020	-1.556810	-0.000240
C	0.012130	0.000050	-1.813070
C	0.012560	0.000190	1.813040
O	2.964900	-0.000760	0.000510
O	-1.506960	2.546960	0.000070
O	-1.506840	-2.546870	-0.000500
O	0.020120	0.000040	-2.961090
O	0.021000	0.000450	2.961060
